<?xml version="1.0" encoding="UTF-8"?>

<!-- generated on Thu Sep  3 20:12:12 2015 by SUMO netconvert Version 0.21.0
<?xml version="1.0" encoding="UTF-8"?>

<configuration xmlns:xsi="http://www.w3.org/2001/XMLSchema-instance" xsi:noNamespaceSchemaLocation="http://sumo-sim.org/xsd/netconvertConfiguration.xsd">

    <input>
        <node-files value="range.nod.xml"/>
        <edge-files value="range.edg.xml"/>
    </input>

    <output>
        <output-file value="range.net.xml"/>
    </output>

</configuration>
-->

<net version="0.13" xmlns:xsi="http://www.w3.org/2001/XMLSchema-instance" xsi:noNamespaceSchemaLocation="http://sumo-sim.org/xsd/net_file.xsd">

    <location netOffset="0.00,0.00" convBoundary="0.00,0.00,2000.00,0.00" origBoundary="0.00,0.00,2000.00,0.00" projParameter="!"/>

    <edge id="1to2" from="1" to="2" priority="-1">
        <lane id="1to2_0" index="0" speed="13.90" length="2000.00" shape="0.00,-1.65 2000.00,-1.65"/>
    </edge>

    <junction id="1" type="unregulated" x="0.00" y="0.00" incLanes="" intLanes="" shape="-0.00,-0.05 -0.00,-3.25"/>
    <junction id="2" type="unregulated" x="2000.00" y="0.00" incLanes="1to2_0" intLanes="" shape="2000.00,-3.25 2000.00,-0.05"/>

</net>
