<?xml version="1.0" encoding="UTF-8"?>

<!-- generated on Wed May  6 16:01:34 2015 by SUMO netconvert Version 0.21.0
<?xml version="1.0" encoding="UTF-8"?>

<configuration xmlns:xsi="http://www.w3.org/2001/XMLSchema-instance" xsi:noNamespaceSchemaLocation="http://sumo-sim.org/xsd/netconvertConfiguration.xsd">

    <input>
        <node-files value="second.nod.xml"/>
        <edge-files value="second.edg.xml"/>
    </input>

    <output>
        <output-file value="second.net.xml"/>
    </output>

</configuration>
-->

<net version="0.13" xmlns:xsi="http://www.w3.org/2001/XMLSchema-instance" xsi:noNamespaceSchemaLocation="http://sumo-sim.org/xsd/net_file.xsd">

    <location netOffset="0.00,0.00" convBoundary="0.00,0.00,100000.00,5.00" origBoundary="0.00,0.00,100000.00,5.00" projParameter="!"/>

    <edge id=":10a_0" function="internal">
        <lane id=":10a_0_0" index="0" speed="16.66" length="0.10" shape="45000.00,13.25 45000.00,13.25"/>
        <lane id=":10a_0_1" index="1" speed="25.00" length="0.10" shape="45000.00,9.95 45000.00,9.95"/>
        <lane id=":10a_0_2" index="2" speed="33.33" length="0.10" shape="45000.00,6.65 45000.00,6.65"/>
    </edge>
    <edge id=":10b_0" function="internal">
        <lane id=":10b_0_0" index="0" speed="16.66" length="0.10" shape="45000.00,-8.25 45000.00,-8.25"/>
        <lane id=":10b_0_1" index="1" speed="25.00" length="0.10" shape="45000.00,-4.95 45000.00,-4.95"/>
        <lane id=":10b_0_2" index="2" speed="33.33" length="0.10" shape="45000.00,-1.65 45000.00,-1.65"/>
    </edge>
    <edge id=":11a_0" function="internal">
        <lane id=":11a_0_0" index="0" speed="16.66" length="0.10" shape="50000.00,13.25 50000.00,13.25"/>
        <lane id=":11a_0_1" index="1" speed="25.00" length="0.10" shape="50000.00,9.95 50000.00,9.95"/>
        <lane id=":11a_0_2" index="2" speed="33.33" length="0.10" shape="50000.00,6.65 50000.00,6.65"/>
    </edge>
    <edge id=":11b_0" function="internal">
        <lane id=":11b_0_0" index="0" speed="16.66" length="0.10" shape="50000.00,-8.25 50000.00,-8.25"/>
        <lane id=":11b_0_1" index="1" speed="25.00" length="0.10" shape="50000.00,-4.95 50000.00,-4.95"/>
        <lane id=":11b_0_2" index="2" speed="33.33" length="0.10" shape="50000.00,-1.65 50000.00,-1.65"/>
    </edge>
    <edge id=":12a_0" function="internal">
        <lane id=":12a_0_0" index="0" speed="16.66" length="0.10" shape="55000.00,13.25 55000.00,13.25"/>
        <lane id=":12a_0_1" index="1" speed="25.00" length="0.10" shape="55000.00,9.95 55000.00,9.95"/>
        <lane id=":12a_0_2" index="2" speed="33.33" length="0.10" shape="55000.00,6.65 55000.00,6.65"/>
    </edge>
    <edge id=":12b_0" function="internal">
        <lane id=":12b_0_0" index="0" speed="16.66" length="0.10" shape="55000.00,-8.25 55000.00,-8.25"/>
        <lane id=":12b_0_1" index="1" speed="25.00" length="0.10" shape="55000.00,-4.95 55000.00,-4.95"/>
        <lane id=":12b_0_2" index="2" speed="33.33" length="0.10" shape="55000.00,-1.65 55000.00,-1.65"/>
    </edge>
    <edge id=":13a_0" function="internal">
        <lane id=":13a_0_0" index="0" speed="16.66" length="0.10" shape="60000.00,13.25 60000.00,13.25"/>
        <lane id=":13a_0_1" index="1" speed="25.00" length="0.10" shape="60000.00,9.95 60000.00,9.95"/>
        <lane id=":13a_0_2" index="2" speed="33.33" length="0.10" shape="60000.00,6.65 60000.00,6.65"/>
    </edge>
    <edge id=":13b_0" function="internal">
        <lane id=":13b_0_0" index="0" speed="16.66" length="0.10" shape="60000.00,-8.25 60000.00,-8.25"/>
        <lane id=":13b_0_1" index="1" speed="25.00" length="0.10" shape="60000.00,-4.95 60000.00,-4.95"/>
        <lane id=":13b_0_2" index="2" speed="33.33" length="0.10" shape="60000.00,-1.65 60000.00,-1.65"/>
    </edge>
    <edge id=":14a_0" function="internal">
        <lane id=":14a_0_0" index="0" speed="16.66" length="0.10" shape="65000.00,13.25 65000.00,13.25"/>
        <lane id=":14a_0_1" index="1" speed="25.00" length="0.10" shape="65000.00,9.95 65000.00,9.95"/>
        <lane id=":14a_0_2" index="2" speed="33.33" length="0.10" shape="65000.00,6.65 65000.00,6.65"/>
    </edge>
    <edge id=":14b_0" function="internal">
        <lane id=":14b_0_0" index="0" speed="16.66" length="0.10" shape="65000.00,-8.25 65000.00,-8.25"/>
        <lane id=":14b_0_1" index="1" speed="25.00" length="0.10" shape="65000.00,-4.95 65000.00,-4.95"/>
        <lane id=":14b_0_2" index="2" speed="33.33" length="0.10" shape="65000.00,-1.65 65000.00,-1.65"/>
    </edge>
    <edge id=":15a_0" function="internal">
        <lane id=":15a_0_0" index="0" speed="16.66" length="0.10" shape="70000.00,13.25 70000.00,13.25"/>
        <lane id=":15a_0_1" index="1" speed="25.00" length="0.10" shape="70000.00,9.95 70000.00,9.95"/>
        <lane id=":15a_0_2" index="2" speed="33.33" length="0.10" shape="70000.00,6.65 70000.00,6.65"/>
    </edge>
    <edge id=":15b_0" function="internal">
        <lane id=":15b_0_0" index="0" speed="16.66" length="0.10" shape="70000.00,-8.25 70000.00,-8.25"/>
        <lane id=":15b_0_1" index="1" speed="25.00" length="0.10" shape="70000.00,-4.95 70000.00,-4.95"/>
        <lane id=":15b_0_2" index="2" speed="33.33" length="0.10" shape="70000.00,-1.65 70000.00,-1.65"/>
    </edge>
    <edge id=":16a_0" function="internal">
        <lane id=":16a_0_0" index="0" speed="16.66" length="0.10" shape="75000.00,13.25 75000.00,13.25"/>
        <lane id=":16a_0_1" index="1" speed="25.00" length="0.10" shape="75000.00,9.95 75000.00,9.95"/>
        <lane id=":16a_0_2" index="2" speed="33.33" length="0.10" shape="75000.00,6.65 75000.00,6.65"/>
    </edge>
    <edge id=":16b_0" function="internal">
        <lane id=":16b_0_0" index="0" speed="16.66" length="0.10" shape="75000.00,-8.25 75000.00,-8.25"/>
        <lane id=":16b_0_1" index="1" speed="25.00" length="0.10" shape="75000.00,-4.95 75000.00,-4.95"/>
        <lane id=":16b_0_2" index="2" speed="33.33" length="0.10" shape="75000.00,-1.65 75000.00,-1.65"/>
    </edge>
    <edge id=":17a_0" function="internal">
        <lane id=":17a_0_0" index="0" speed="16.66" length="0.10" shape="80000.00,13.25 80000.00,13.25"/>
        <lane id=":17a_0_1" index="1" speed="25.00" length="0.10" shape="80000.00,9.95 80000.00,9.95"/>
        <lane id=":17a_0_2" index="2" speed="33.33" length="0.10" shape="80000.00,6.65 80000.00,6.65"/>
    </edge>
    <edge id=":17b_0" function="internal">
        <lane id=":17b_0_0" index="0" speed="16.66" length="0.10" shape="80000.00,-8.25 80000.00,-8.25"/>
        <lane id=":17b_0_1" index="1" speed="25.00" length="0.10" shape="80000.00,-4.95 80000.00,-4.95"/>
        <lane id=":17b_0_2" index="2" speed="33.33" length="0.10" shape="80000.00,-1.65 80000.00,-1.65"/>
    </edge>
    <edge id=":18a_0" function="internal">
        <lane id=":18a_0_0" index="0" speed="16.66" length="0.10" shape="85000.00,13.25 85000.00,13.25"/>
        <lane id=":18a_0_1" index="1" speed="25.00" length="0.10" shape="85000.00,9.95 85000.00,9.95"/>
        <lane id=":18a_0_2" index="2" speed="33.33" length="0.10" shape="85000.00,6.65 85000.00,6.65"/>
    </edge>
    <edge id=":18b_0" function="internal">
        <lane id=":18b_0_0" index="0" speed="16.66" length="0.10" shape="85000.00,-8.25 85000.00,-8.25"/>
        <lane id=":18b_0_1" index="1" speed="25.00" length="0.10" shape="85000.00,-4.95 85000.00,-4.95"/>
        <lane id=":18b_0_2" index="2" speed="33.33" length="0.10" shape="85000.00,-1.65 85000.00,-1.65"/>
    </edge>
    <edge id=":19a_0" function="internal">
        <lane id=":19a_0_0" index="0" speed="16.66" length="0.10" shape="90000.00,13.25 90000.00,13.25"/>
        <lane id=":19a_0_1" index="1" speed="25.00" length="0.10" shape="90000.00,9.95 90000.00,9.95"/>
        <lane id=":19a_0_2" index="2" speed="33.33" length="0.10" shape="90000.00,6.65 90000.00,6.65"/>
    </edge>
    <edge id=":19b_0" function="internal">
        <lane id=":19b_0_0" index="0" speed="16.66" length="0.10" shape="90000.00,-8.25 90000.00,-8.25"/>
        <lane id=":19b_0_1" index="1" speed="25.00" length="0.10" shape="90000.00,-4.95 90000.00,-4.95"/>
        <lane id=":19b_0_2" index="2" speed="33.33" length="0.10" shape="90000.00,-1.65 90000.00,-1.65"/>
    </edge>
    <edge id=":20a_0" function="internal">
        <lane id=":20a_0_0" index="0" speed="16.66" length="0.10" shape="95000.00,13.25 95000.00,13.25"/>
        <lane id=":20a_0_1" index="1" speed="25.00" length="0.10" shape="95000.00,9.95 95000.00,9.95"/>
        <lane id=":20a_0_2" index="2" speed="33.33" length="0.10" shape="95000.00,6.65 95000.00,6.65"/>
    </edge>
    <edge id=":20b_0" function="internal">
        <lane id=":20b_0_0" index="0" speed="16.66" length="0.10" shape="95000.00,-8.25 95000.00,-8.25"/>
        <lane id=":20b_0_1" index="1" speed="25.00" length="0.10" shape="95000.00,-4.95 95000.00,-4.95"/>
        <lane id=":20b_0_2" index="2" speed="33.33" length="0.10" shape="95000.00,-1.65 95000.00,-1.65"/>
    </edge>
    <edge id=":2a_0" function="internal">
        <lane id=":2a_0_0" index="0" speed="16.66" length="0.10" shape="5000.00,13.25 5000.00,13.25"/>
        <lane id=":2a_0_1" index="1" speed="25.00" length="0.10" shape="5000.00,9.95 5000.00,9.95"/>
        <lane id=":2a_0_2" index="2" speed="33.33" length="0.10" shape="5000.00,6.65 5000.00,6.65"/>
    </edge>
    <edge id=":2b_0" function="internal">
        <lane id=":2b_0_0" index="0" speed="16.66" length="0.10" shape="5000.00,-8.25 5000.00,-8.25"/>
        <lane id=":2b_0_1" index="1" speed="25.00" length="0.10" shape="5000.00,-4.95 5000.00,-4.95"/>
        <lane id=":2b_0_2" index="2" speed="33.33" length="0.10" shape="5000.00,-1.65 5000.00,-1.65"/>
    </edge>
    <edge id=":3a_0" function="internal">
        <lane id=":3a_0_0" index="0" speed="16.66" length="0.10" shape="10000.00,13.25 10000.00,13.25"/>
        <lane id=":3a_0_1" index="1" speed="25.00" length="0.10" shape="10000.00,9.95 10000.00,9.95"/>
        <lane id=":3a_0_2" index="2" speed="33.33" length="0.10" shape="10000.00,6.65 10000.00,6.65"/>
    </edge>
    <edge id=":3b_0" function="internal">
        <lane id=":3b_0_0" index="0" speed="16.66" length="0.10" shape="10000.00,-8.25 10000.00,-8.25"/>
        <lane id=":3b_0_1" index="1" speed="25.00" length="0.10" shape="10000.00,-4.95 10000.00,-4.95"/>
        <lane id=":3b_0_2" index="2" speed="33.33" length="0.10" shape="10000.00,-1.65 10000.00,-1.65"/>
    </edge>
    <edge id=":4a_0" function="internal">
        <lane id=":4a_0_0" index="0" speed="16.66" length="0.10" shape="15000.00,13.25 15000.00,13.25"/>
        <lane id=":4a_0_1" index="1" speed="25.00" length="0.10" shape="15000.00,9.95 15000.00,9.95"/>
        <lane id=":4a_0_2" index="2" speed="33.33" length="0.10" shape="15000.00,6.65 15000.00,6.65"/>
    </edge>
    <edge id=":4b_0" function="internal">
        <lane id=":4b_0_0" index="0" speed="16.66" length="0.10" shape="15000.00,-8.25 15000.00,-8.25"/>
        <lane id=":4b_0_1" index="1" speed="25.00" length="0.10" shape="15000.00,-4.95 15000.00,-4.95"/>
        <lane id=":4b_0_2" index="2" speed="33.33" length="0.10" shape="15000.00,-1.65 15000.00,-1.65"/>
    </edge>
    <edge id=":5a_0" function="internal">
        <lane id=":5a_0_0" index="0" speed="16.66" length="0.10" shape="20000.00,13.25 20000.00,13.25"/>
        <lane id=":5a_0_1" index="1" speed="25.00" length="0.10" shape="20000.00,9.95 20000.00,9.95"/>
        <lane id=":5a_0_2" index="2" speed="33.33" length="0.10" shape="20000.00,6.65 20000.00,6.65"/>
    </edge>
    <edge id=":5b_0" function="internal">
        <lane id=":5b_0_0" index="0" speed="16.66" length="0.10" shape="20000.00,-8.25 20000.00,-8.25"/>
        <lane id=":5b_0_1" index="1" speed="25.00" length="0.10" shape="20000.00,-4.95 20000.00,-4.95"/>
        <lane id=":5b_0_2" index="2" speed="33.33" length="0.10" shape="20000.00,-1.65 20000.00,-1.65"/>
    </edge>
    <edge id=":6a_0" function="internal">
        <lane id=":6a_0_0" index="0" speed="16.66" length="0.10" shape="25000.00,13.25 25000.00,13.25"/>
        <lane id=":6a_0_1" index="1" speed="25.00" length="0.10" shape="25000.00,9.95 25000.00,9.95"/>
        <lane id=":6a_0_2" index="2" speed="33.33" length="0.10" shape="25000.00,6.65 25000.00,6.65"/>
    </edge>
    <edge id=":6b_0" function="internal">
        <lane id=":6b_0_0" index="0" speed="16.66" length="0.10" shape="25000.00,-8.25 25000.00,-8.25"/>
        <lane id=":6b_0_1" index="1" speed="25.00" length="0.10" shape="25000.00,-4.95 25000.00,-4.95"/>
        <lane id=":6b_0_2" index="2" speed="33.33" length="0.10" shape="25000.00,-1.65 25000.00,-1.65"/>
    </edge>
    <edge id=":7a_0" function="internal">
        <lane id=":7a_0_0" index="0" speed="16.66" length="0.10" shape="30000.00,13.25 30000.00,13.25"/>
        <lane id=":7a_0_1" index="1" speed="25.00" length="0.10" shape="30000.00,9.95 30000.00,9.95"/>
        <lane id=":7a_0_2" index="2" speed="33.33" length="0.10" shape="30000.00,6.65 30000.00,6.65"/>
    </edge>
    <edge id=":7b_0" function="internal">
        <lane id=":7b_0_0" index="0" speed="16.66" length="0.10" shape="30000.00,-8.25 30000.00,-8.25"/>
        <lane id=":7b_0_1" index="1" speed="25.00" length="0.10" shape="30000.00,-4.95 30000.00,-4.95"/>
        <lane id=":7b_0_2" index="2" speed="33.33" length="0.10" shape="30000.00,-1.65 30000.00,-1.65"/>
    </edge>
    <edge id=":8a_0" function="internal">
        <lane id=":8a_0_0" index="0" speed="16.66" length="0.10" shape="35000.00,13.25 35000.00,13.25"/>
        <lane id=":8a_0_1" index="1" speed="25.00" length="0.10" shape="35000.00,9.95 35000.00,9.95"/>
        <lane id=":8a_0_2" index="2" speed="33.33" length="0.10" shape="35000.00,6.65 35000.00,6.65"/>
    </edge>
    <edge id=":8b_0" function="internal">
        <lane id=":8b_0_0" index="0" speed="16.66" length="0.10" shape="35000.00,-8.25 35000.00,-8.25"/>
        <lane id=":8b_0_1" index="1" speed="25.00" length="0.10" shape="35000.00,-4.95 35000.00,-4.95"/>
        <lane id=":8b_0_2" index="2" speed="33.33" length="0.10" shape="35000.00,-1.65 35000.00,-1.65"/>
    </edge>
    <edge id=":9a_0" function="internal">
        <lane id=":9a_0_0" index="0" speed="16.66" length="0.10" shape="40000.00,13.25 40000.00,13.25"/>
        <lane id=":9a_0_1" index="1" speed="25.00" length="0.10" shape="40000.00,9.95 40000.00,9.95"/>
        <lane id=":9a_0_2" index="2" speed="33.33" length="0.10" shape="40000.00,6.65 40000.00,6.65"/>
    </edge>
    <edge id=":9b_0" function="internal">
        <lane id=":9b_0_0" index="0" speed="16.66" length="0.10" shape="40000.00,-8.25 40000.00,-8.25"/>
        <lane id=":9b_0_1" index="1" speed="25.00" length="0.10" shape="40000.00,-4.95 40000.00,-4.95"/>
        <lane id=":9b_0_2" index="2" speed="33.33" length="0.10" shape="40000.00,-1.65 40000.00,-1.65"/>
    </edge>

    <edge id="10ato9a" from="10a" to="9a" priority="-1">
        <lane id="10ato9a_0" index="0" speed="16.66" length="5000.00" shape="45000.00,13.25 40000.00,13.25"/>
        <lane id="10ato9a_1" index="1" speed="25.00" length="5000.00" shape="45000.00,9.95 40000.00,9.95"/>
        <lane id="10ato9a_2" index="2" speed="33.33" length="5000.00" shape="45000.00,6.65 40000.00,6.65"/>
    </edge>
    <edge id="10bto11b" from="10b" to="11b" priority="-1">
        <lane id="10bto11b_0" index="0" speed="16.66" length="5000.00" shape="45000.00,-8.25 50000.00,-8.25"/>
        <lane id="10bto11b_1" index="1" speed="25.00" length="5000.00" shape="45000.00,-4.95 50000.00,-4.95"/>
        <lane id="10bto11b_2" index="2" speed="33.33" length="5000.00" shape="45000.00,-1.65 50000.00,-1.65"/>
    </edge>
    <edge id="11ato10a" from="11a" to="10a" priority="-1">
        <lane id="11ato10a_0" index="0" speed="16.66" length="5000.00" shape="50000.00,13.25 45000.00,13.25"/>
        <lane id="11ato10a_1" index="1" speed="25.00" length="5000.00" shape="50000.00,9.95 45000.00,9.95"/>
        <lane id="11ato10a_2" index="2" speed="33.33" length="5000.00" shape="50000.00,6.65 45000.00,6.65"/>
    </edge>
    <edge id="11bto12b" from="11b" to="12b" priority="-1">
        <lane id="11bto12b_0" index="0" speed="16.66" length="5000.00" shape="50000.00,-8.25 55000.00,-8.25"/>
        <lane id="11bto12b_1" index="1" speed="25.00" length="5000.00" shape="50000.00,-4.95 55000.00,-4.95"/>
        <lane id="11bto12b_2" index="2" speed="33.33" length="5000.00" shape="50000.00,-1.65 55000.00,-1.65"/>
    </edge>
    <edge id="12ato11a" from="12a" to="11a" priority="-1">
        <lane id="12ato11a_0" index="0" speed="16.66" length="5000.00" shape="55000.00,13.25 50000.00,13.25"/>
        <lane id="12ato11a_1" index="1" speed="25.00" length="5000.00" shape="55000.00,9.95 50000.00,9.95"/>
        <lane id="12ato11a_2" index="2" speed="33.33" length="5000.00" shape="55000.00,6.65 50000.00,6.65"/>
    </edge>
    <edge id="12bto13b" from="12b" to="13b" priority="-1">
        <lane id="12bto13b_0" index="0" speed="16.66" length="5000.00" shape="55000.00,-8.25 60000.00,-8.25"/>
        <lane id="12bto13b_1" index="1" speed="25.00" length="5000.00" shape="55000.00,-4.95 60000.00,-4.95"/>
        <lane id="12bto13b_2" index="2" speed="33.33" length="5000.00" shape="55000.00,-1.65 60000.00,-1.65"/>
    </edge>
    <edge id="13ato12a" from="13a" to="12a" priority="-1">
        <lane id="13ato12a_0" index="0" speed="16.66" length="5000.00" shape="60000.00,13.25 55000.00,13.25"/>
        <lane id="13ato12a_1" index="1" speed="25.00" length="5000.00" shape="60000.00,9.95 55000.00,9.95"/>
        <lane id="13ato12a_2" index="2" speed="33.33" length="5000.00" shape="60000.00,6.65 55000.00,6.65"/>
    </edge>
    <edge id="13bto14b" from="13b" to="14b" priority="-1">
        <lane id="13bto14b_0" index="0" speed="16.66" length="5000.00" shape="60000.00,-8.25 65000.00,-8.25"/>
        <lane id="13bto14b_1" index="1" speed="25.00" length="5000.00" shape="60000.00,-4.95 65000.00,-4.95"/>
        <lane id="13bto14b_2" index="2" speed="33.33" length="5000.00" shape="60000.00,-1.65 65000.00,-1.65"/>
    </edge>
    <edge id="14ato13a" from="14a" to="13a" priority="-1">
        <lane id="14ato13a_0" index="0" speed="16.66" length="5000.00" shape="65000.00,13.25 60000.00,13.25"/>
        <lane id="14ato13a_1" index="1" speed="25.00" length="5000.00" shape="65000.00,9.95 60000.00,9.95"/>
        <lane id="14ato13a_2" index="2" speed="33.33" length="5000.00" shape="65000.00,6.65 60000.00,6.65"/>
    </edge>
    <edge id="14bto15b" from="14b" to="15b" priority="-1">
        <lane id="14bto15b_0" index="0" speed="16.66" length="5000.00" shape="65000.00,-8.25 70000.00,-8.25"/>
        <lane id="14bto15b_1" index="1" speed="25.00" length="5000.00" shape="65000.00,-4.95 70000.00,-4.95"/>
        <lane id="14bto15b_2" index="2" speed="33.33" length="5000.00" shape="65000.00,-1.65 70000.00,-1.65"/>
    </edge>
    <edge id="15ato14a" from="15a" to="14a" priority="-1">
        <lane id="15ato14a_0" index="0" speed="16.66" length="5000.00" shape="70000.00,13.25 65000.00,13.25"/>
        <lane id="15ato14a_1" index="1" speed="25.00" length="5000.00" shape="70000.00,9.95 65000.00,9.95"/>
        <lane id="15ato14a_2" index="2" speed="33.33" length="5000.00" shape="70000.00,6.65 65000.00,6.65"/>
    </edge>
    <edge id="15bto16b" from="15b" to="16b" priority="-1">
        <lane id="15bto16b_0" index="0" speed="16.66" length="5000.00" shape="70000.00,-8.25 75000.00,-8.25"/>
        <lane id="15bto16b_1" index="1" speed="25.00" length="5000.00" shape="70000.00,-4.95 75000.00,-4.95"/>
        <lane id="15bto16b_2" index="2" speed="33.33" length="5000.00" shape="70000.00,-1.65 75000.00,-1.65"/>
    </edge>
    <edge id="16ato15a" from="16a" to="15a" priority="-1">
        <lane id="16ato15a_0" index="0" speed="16.66" length="5000.00" shape="75000.00,13.25 70000.00,13.25"/>
        <lane id="16ato15a_1" index="1" speed="25.00" length="5000.00" shape="75000.00,9.95 70000.00,9.95"/>
        <lane id="16ato15a_2" index="2" speed="33.33" length="5000.00" shape="75000.00,6.65 70000.00,6.65"/>
    </edge>
    <edge id="16bto17b" from="16b" to="17b" priority="-1">
        <lane id="16bto17b_0" index="0" speed="16.66" length="5000.00" shape="75000.00,-8.25 80000.00,-8.25"/>
        <lane id="16bto17b_1" index="1" speed="25.00" length="5000.00" shape="75000.00,-4.95 80000.00,-4.95"/>
        <lane id="16bto17b_2" index="2" speed="33.33" length="5000.00" shape="75000.00,-1.65 80000.00,-1.65"/>
    </edge>
    <edge id="17ato16a" from="17a" to="16a" priority="-1">
        <lane id="17ato16a_0" index="0" speed="16.66" length="5000.00" shape="80000.00,13.25 75000.00,13.25"/>
        <lane id="17ato16a_1" index="1" speed="25.00" length="5000.00" shape="80000.00,9.95 75000.00,9.95"/>
        <lane id="17ato16a_2" index="2" speed="33.33" length="5000.00" shape="80000.00,6.65 75000.00,6.65"/>
    </edge>
    <edge id="17bto18b" from="17b" to="18b" priority="-1">
        <lane id="17bto18b_0" index="0" speed="16.66" length="5000.00" shape="80000.00,-8.25 85000.00,-8.25"/>
        <lane id="17bto18b_1" index="1" speed="25.00" length="5000.00" shape="80000.00,-4.95 85000.00,-4.95"/>
        <lane id="17bto18b_2" index="2" speed="33.33" length="5000.00" shape="80000.00,-1.65 85000.00,-1.65"/>
    </edge>
    <edge id="18ato17a" from="18a" to="17a" priority="-1">
        <lane id="18ato17a_0" index="0" speed="16.66" length="5000.00" shape="85000.00,13.25 80000.00,13.25"/>
        <lane id="18ato17a_1" index="1" speed="25.00" length="5000.00" shape="85000.00,9.95 80000.00,9.95"/>
        <lane id="18ato17a_2" index="2" speed="33.33" length="5000.00" shape="85000.00,6.65 80000.00,6.65"/>
    </edge>
    <edge id="18bto19b" from="18b" to="19b" priority="-1">
        <lane id="18bto19b_0" index="0" speed="16.66" length="5000.00" shape="85000.00,-8.25 90000.00,-8.25"/>
        <lane id="18bto19b_1" index="1" speed="25.00" length="5000.00" shape="85000.00,-4.95 90000.00,-4.95"/>
        <lane id="18bto19b_2" index="2" speed="33.33" length="5000.00" shape="85000.00,-1.65 90000.00,-1.65"/>
    </edge>
    <edge id="19ato18a" from="19a" to="18a" priority="-1">
        <lane id="19ato18a_0" index="0" speed="16.66" length="5000.00" shape="90000.00,13.25 85000.00,13.25"/>
        <lane id="19ato18a_1" index="1" speed="25.00" length="5000.00" shape="90000.00,9.95 85000.00,9.95"/>
        <lane id="19ato18a_2" index="2" speed="33.33" length="5000.00" shape="90000.00,6.65 85000.00,6.65"/>
    </edge>
    <edge id="19bto20b" from="19b" to="20b" priority="-1">
        <lane id="19bto20b_0" index="0" speed="16.66" length="5000.00" shape="90000.00,-8.25 95000.00,-8.25"/>
        <lane id="19bto20b_1" index="1" speed="25.00" length="5000.00" shape="90000.00,-4.95 95000.00,-4.95"/>
        <lane id="19bto20b_2" index="2" speed="33.33" length="5000.00" shape="90000.00,-1.65 95000.00,-1.65"/>
    </edge>
    <edge id="1bto2b" from="1b" to="2b" priority="-1">
        <lane id="1bto2b_0" index="0" speed="16.66" length="5000.00" shape="0.00,-8.25 5000.00,-8.25"/>
        <lane id="1bto2b_1" index="1" speed="25.00" length="5000.00" shape="0.00,-4.95 5000.00,-4.95"/>
        <lane id="1bto2b_2" index="2" speed="33.33" length="5000.00" shape="0.00,-1.65 5000.00,-1.65"/>
    </edge>
    <edge id="20ato19a" from="20a" to="19a" priority="-1">
        <lane id="20ato19a_0" index="0" speed="16.66" length="5000.00" shape="95000.00,13.25 90000.00,13.25"/>
        <lane id="20ato19a_1" index="1" speed="25.00" length="5000.00" shape="95000.00,9.95 90000.00,9.95"/>
        <lane id="20ato19a_2" index="2" speed="33.33" length="5000.00" shape="95000.00,6.65 90000.00,6.65"/>
    </edge>
    <edge id="20bto21b" from="20b" to="21b" priority="-1">
        <lane id="20bto21b_0" index="0" speed="16.66" length="5000.00" shape="95000.00,-8.25 100000.00,-8.25"/>
        <lane id="20bto21b_1" index="1" speed="25.00" length="5000.00" shape="95000.00,-4.95 100000.00,-4.95"/>
        <lane id="20bto21b_2" index="2" speed="33.33" length="5000.00" shape="95000.00,-1.65 100000.00,-1.65"/>
    </edge>
    <edge id="21ato20a" from="21a" to="20a" priority="-1">
        <lane id="21ato20a_0" index="0" speed="16.66" length="5000.00" shape="100000.00,13.25 95000.00,13.25"/>
        <lane id="21ato20a_1" index="1" speed="25.00" length="5000.00" shape="100000.00,9.95 95000.00,9.95"/>
        <lane id="21ato20a_2" index="2" speed="33.33" length="5000.00" shape="100000.00,6.65 95000.00,6.65"/>
    </edge>
    <edge id="2ato1a" from="2a" to="1a" priority="-1">
        <lane id="2ato1a_0" index="0" speed="16.66" length="5000.00" shape="5000.00,13.25 0.00,13.25"/>
        <lane id="2ato1a_1" index="1" speed="25.00" length="5000.00" shape="5000.00,9.95 0.00,9.95"/>
        <lane id="2ato1a_2" index="2" speed="33.33" length="5000.00" shape="5000.00,6.65 0.00,6.65"/>
    </edge>
    <edge id="2bto3b" from="2b" to="3b" priority="-1">
        <lane id="2bto3b_0" index="0" speed="16.66" length="5000.00" shape="5000.00,-8.25 10000.00,-8.25"/>
        <lane id="2bto3b_1" index="1" speed="25.00" length="5000.00" shape="5000.00,-4.95 10000.00,-4.95"/>
        <lane id="2bto3b_2" index="2" speed="33.33" length="5000.00" shape="5000.00,-1.65 10000.00,-1.65"/>
    </edge>
    <edge id="3ato2a" from="3a" to="2a" priority="-1">
        <lane id="3ato2a_0" index="0" speed="16.66" length="5000.00" shape="10000.00,13.25 5000.00,13.25"/>
        <lane id="3ato2a_1" index="1" speed="25.00" length="5000.00" shape="10000.00,9.95 5000.00,9.95"/>
        <lane id="3ato2a_2" index="2" speed="33.33" length="5000.00" shape="10000.00,6.65 5000.00,6.65"/>
    </edge>
    <edge id="3bto4b" from="3b" to="4b" priority="-1">
        <lane id="3bto4b_0" index="0" speed="16.66" length="5000.00" shape="10000.00,-8.25 15000.00,-8.25"/>
        <lane id="3bto4b_1" index="1" speed="25.00" length="5000.00" shape="10000.00,-4.95 15000.00,-4.95"/>
        <lane id="3bto4b_2" index="2" speed="33.33" length="5000.00" shape="10000.00,-1.65 15000.00,-1.65"/>
    </edge>
    <edge id="4ato3a" from="4a" to="3a" priority="-1">
        <lane id="4ato3a_0" index="0" speed="16.66" length="5000.00" shape="15000.00,13.25 10000.00,13.25"/>
        <lane id="4ato3a_1" index="1" speed="25.00" length="5000.00" shape="15000.00,9.95 10000.00,9.95"/>
        <lane id="4ato3a_2" index="2" speed="33.33" length="5000.00" shape="15000.00,6.65 10000.00,6.65"/>
    </edge>
    <edge id="4bto5b" from="4b" to="5b" priority="-1">
        <lane id="4bto5b_0" index="0" speed="16.66" length="5000.00" shape="15000.00,-8.25 20000.00,-8.25"/>
        <lane id="4bto5b_1" index="1" speed="25.00" length="5000.00" shape="15000.00,-4.95 20000.00,-4.95"/>
        <lane id="4bto5b_2" index="2" speed="33.33" length="5000.00" shape="15000.00,-1.65 20000.00,-1.65"/>
    </edge>
    <edge id="5ato4a" from="5a" to="4a" priority="-1">
        <lane id="5ato4a_0" index="0" speed="16.66" length="5000.00" shape="20000.00,13.25 15000.00,13.25"/>
        <lane id="5ato4a_1" index="1" speed="25.00" length="5000.00" shape="20000.00,9.95 15000.00,9.95"/>
        <lane id="5ato4a_2" index="2" speed="33.33" length="5000.00" shape="20000.00,6.65 15000.00,6.65"/>
    </edge>
    <edge id="5bto6b" from="5b" to="6b" priority="-1">
        <lane id="5bto6b_0" index="0" speed="16.66" length="5000.00" shape="20000.00,-8.25 25000.00,-8.25"/>
        <lane id="5bto6b_1" index="1" speed="25.00" length="5000.00" shape="20000.00,-4.95 25000.00,-4.95"/>
        <lane id="5bto6b_2" index="2" speed="33.33" length="5000.00" shape="20000.00,-1.65 25000.00,-1.65"/>
    </edge>
    <edge id="6ato5a" from="6a" to="5a" priority="-1">
        <lane id="6ato5a_0" index="0" speed="16.66" length="5000.00" shape="25000.00,13.25 20000.00,13.25"/>
        <lane id="6ato5a_1" index="1" speed="25.00" length="5000.00" shape="25000.00,9.95 20000.00,9.95"/>
        <lane id="6ato5a_2" index="2" speed="33.33" length="5000.00" shape="25000.00,6.65 20000.00,6.65"/>
    </edge>
    <edge id="6bto7b" from="6b" to="7b" priority="-1">
        <lane id="6bto7b_0" index="0" speed="16.66" length="5000.00" shape="25000.00,-8.25 30000.00,-8.25"/>
        <lane id="6bto7b_1" index="1" speed="25.00" length="5000.00" shape="25000.00,-4.95 30000.00,-4.95"/>
        <lane id="6bto7b_2" index="2" speed="33.33" length="5000.00" shape="25000.00,-1.65 30000.00,-1.65"/>
    </edge>
    <edge id="7ato6a" from="7a" to="6a" priority="-1">
        <lane id="7ato6a_0" index="0" speed="16.66" length="5000.00" shape="30000.00,13.25 25000.00,13.25"/>
        <lane id="7ato6a_1" index="1" speed="25.00" length="5000.00" shape="30000.00,9.95 25000.00,9.95"/>
        <lane id="7ato6a_2" index="2" speed="33.33" length="5000.00" shape="30000.00,6.65 25000.00,6.65"/>
    </edge>
    <edge id="7bto8b" from="7b" to="8b" priority="-1">
        <lane id="7bto8b_0" index="0" speed="16.66" length="5000.00" shape="30000.00,-8.25 35000.00,-8.25"/>
        <lane id="7bto8b_1" index="1" speed="25.00" length="5000.00" shape="30000.00,-4.95 35000.00,-4.95"/>
        <lane id="7bto8b_2" index="2" speed="33.33" length="5000.00" shape="30000.00,-1.65 35000.00,-1.65"/>
    </edge>
    <edge id="8ato7a" from="8a" to="7a" priority="-1">
        <lane id="8ato7a_0" index="0" speed="16.66" length="5000.00" shape="35000.00,13.25 30000.00,13.25"/>
        <lane id="8ato7a_1" index="1" speed="25.00" length="5000.00" shape="35000.00,9.95 30000.00,9.95"/>
        <lane id="8ato7a_2" index="2" speed="33.33" length="5000.00" shape="35000.00,6.65 30000.00,6.65"/>
    </edge>
    <edge id="8bto9b" from="8b" to="9b" priority="-1">
        <lane id="8bto9b_0" index="0" speed="16.66" length="5000.00" shape="35000.00,-8.25 40000.00,-8.25"/>
        <lane id="8bto9b_1" index="1" speed="25.00" length="5000.00" shape="35000.00,-4.95 40000.00,-4.95"/>
        <lane id="8bto9b_2" index="2" speed="33.33" length="5000.00" shape="35000.00,-1.65 40000.00,-1.65"/>
    </edge>
    <edge id="9ato8a" from="9a" to="8a" priority="-1">