[General]
cmdenv-express-mode = true
cmdenv-autoflush = true
cmdenv-status-frequency = 10000000s

#tkenv-default-config = debug
#tkenv-default-run = 1
tkenv-image-path = bitmaps
ned-path = .

network = RSU_osdp

##########################################################
#            Simulation parameters                       #
##########################################################
debug-on-errors = true
print-undisposed = false

sim-time-limit = 3200s

**.scalar-recording = true
**.vector-recording = true

**.debug = false
**.coreDebug = false

*.playgroundSizeX = 100050m
*.playgroundSizeY = 250m
*.playgroundSizeZ = 250m


##########################################################
# Annotation parameters                                  #
##########################################################
*.annotations.draw = false

##########################################################
# Obstacle parameters                                    #
##########################################################
*.obstacles.debug = false

##########################################################
#            WorldUtility parameters                     #
##########################################################
*.world.useTorus = false
*.world.use2D = false

##########################################################
#            TraCIScenarioManager parameters             #
##########################################################
*.manager.updateInterval = 0.1s
*.manager.host = "localhost"
*.manager.port = 9999
*.manager.moduleType = "org.car2x.veins.nodes.Car"
*.manager.moduleName = "node"
*.manager.moduleDisplayString = ""
*.manager.autoShutdown = true
*.manager.margin = 25
*.manager.launchConfig = xmldoc("osdp1.launchd.xml")

##########################################################
#                       RSU SETTINGS                     #
##########################################################
*.rsu[0].mobility.x = 0
*.rsu[0].mobility.y = 200
*.rsu[0].mobility.z = 3
*.rsu[1].mobility.x = 30000
*.rsu[1].mobility.y = 200
*.rsu[1].mobility.z = 3
*.rsu[2].mobility.x = 60000
*.rsu[2].mobility.y = 200
*.rsu[2].mobility.z = 3
*.rsu[3].mobility.x = 90000
*.rsu[3].mobility.y = 200
*.rsu[3].mobility.z = 3
*.rsu[*].applType = "osdp_RSU"
*.rsu[*].appl.debug = false
*.rsu[*].appl.headerLength = 256 bit
*.rsu[*].appl.sendBeacons = false
*.rsu[*].appl.dataOnSch = false
*.rsu[*].appl.sendData = true
*.rsu[*].appl.beaconInterval = 1s
*.rsu[*].appl.beaconPriority = 3
*.rsu[*].appl.dataPriority = 2
*.rsu[*].appl.maxOffset = 0.005s

##########################################################
#            11p specific parameters                     #
#                    NIC-Settings                        #
##########################################################
*.connectionManager.pMax = 20mW
*.connectionManager.sat = -89dBm
*.connectionManager.alpha = 2.0
*.connectionManager.carrierFrequency = 5.890e9 Hz
*.connectionManager.sendDirect = true

*.**.nic.mac1609_4.useServiceChannel = true
*.**.nic.mac1609_4.txPower = 10mW
*.**.nic.mac1609_4.bitrate = 18Mbps

*.**.nic.phy80211p.sensitivity = -89dBm
*.**.nic.phy80211p.maxTXPower = 10mW
*.**.nic.phy80211p.useThermalNoise = true
*.**.nic.phy80211p.thermalNoise = -110dBm
*.**.nic.phy80211p.decider = xmldoc("config.xml")
*.**.nic.phy80211p.analogueModels = xmldoc("config.xml")
*.**.nic.phy80211p.usePropagationDelay = true

##########################################################
#                    WaveAppLayer                        #
##########################################################
*.node[*].applType = "osdp"
*.node[*].appl.debug = false
*.node[*].appl.headerLength = 256 bit
*.node[*].appl.sendBeacons = false
*.node[*].appl.dataOnSch = false
*.node[*].appl.sendData = true
*.node[*].appl.beaconInterval = 0.1s
*.node[*].appl.beaconPriority = 3
*.node[*].appl.dataPriority = 2
*.node[*].appl.maxOffset = 0.005s

##########################################################
#                      Mobility                          #
##########################################################
*.node[*].veinsmobilityType = "org.car2x.veins.modules.mobility.traci.TraCIMobility"
*.node[*].mobilityType = "TraCIMobility"
*.node[*].mobilityType.debug = true
*.node[*].veinsmobilityType.debug = true
*.node[*].veinsmobility.x = 0
*.node[*].veinsmobility.y = 0
*.node[*].veinsmobility.z = 1.895
*.node[*0].veinsmobility.accidentCount = 0
*.node[*0].veinsmobility.accidentStart = 75s
*.node[*0].veinsmobility.accidentDuration = 30s

##########################################################
#                      O S D P                           #
##########################################################
*.rsu[0].appl.serv1 = 1
*.rsu[0].appl.serv2 = 1
*.rsu[1].appl.serv1 = 2
*.rsu[1].appl.serv2 = 2
*.rsu[2].appl.serv1 = 3
*.rsu[2].appl.serv2 = 3
*.rsu[3].appl.serv1 = 4
*.rsu[3].appl.serv2 = 4
*.rsu[*].appl.serviceInterval = 1s

*.node[*].appl.timeService = 1200s
*.node[*].appl.queryInterval = 1s
*.node[*].appl.timeQuery = 22s

*.node[1].appl.query = 1
*.node[1].appl.qservice = "query service0"
*.node[1].appl.initQuery = 600s

[Config nodebug]
description = "default settings"
**.debug = false
**.coreDebug = false
*.annotations.draw = false

[Config debug]
description = "(very slow!) draw and print additional debug information"
**.debug = true
**.coreDebug = true 
*.annotations.draw = true
