<nodes>
    <node id="1" x="+0000.0" y="0.0" />
    <node id="2" x="+0001.0" y="0.0" />
    <node id="3" x="+100000.0" y="0.0" />
    <node id="4" x="+100001.0" y="0.0" />
    <node id="5" x="+0000.0" y="100.0" />
    <node id="6" x="+0001.0" y="100.0" />
    <node id="7" x="+100000.0" y="100.0" />
    <node id="8" x="+100001.0" y="100.0" />
</nodes>
