<nodes>
    <node id="1a" x="0.0" y="0.0" />
    <node id="2a" x="200.0" y="0.0" />
    <node id="3a" x="400.0" y="0.0" />
    <node id="4a" x="600.0" y="0.0" />
    <node id="5a" x="800.0" y="0.0" />
    <node id="6a" x="1000.0" y="0.0" />
    <node id="7a" x="1200.0" y="0.0" />
    <node id="8a" x="1400.0" y="0.0" />
    <node id="9a" x="1600.0" y="0.0" />
    <node id="10a" x="1800.0" y="0.0" />
    <node id="11a" x="2000.0" y="0.0" />

    <node id="1b" x="0.0" y="5.0" />
    <node id="2b" x="200.0" y="5.0" />
    <node id="3b" x="400.0" y="5.0" />
    <node id="4b" x="600.0" y="5.0" />
    <node id="5b" x="800.0" y="5.0" />
    <node id="6b" x="1000.0" y="5.0" />
    <node id="7b" x="1200.0" y="5.0" />
    <node id="8b" x="1400.0" y="5.0" />
    <node id="9b" x="1600.0" y="5.0" />
    <node id="10b" x="1800.0" y="5.0" />
    <node id="11b" x="2000.0" y="5.0" />
</nodes>