<nodes>
  
    <!--
    <node id="1" x="-2000.0" y="0.0" />  <!- esquerda ->
    <node id="2_1" x="-0.01" y="0.0" />
    <node id="2_3" x="+0.01" y="0.0" />    
    <node id="2_4" x="0.0" y="-0.01" />   
    <node id="2_5" x="0.0" y="+0.01" />   
    -->
    
    <!--    
    <node id="2" x="0.0" y="+0.0" />
    <node id="3" x="+2000.0" y="0.0" />  <!- direita ->
    <node id="4" x="0.0" y="-2000.0" />  <!- top -> 
    <node id="5" x="0.0" y="+2000.0" />  <!- em baixo ->    
    -->
    
    <node id="1" x="0.0" y="0.0" />
    <node id="2" x="2000.0" y="0.0" />
    
</nodes>
<!--
     4
     -
     -
1    2    3
     -
     -
     5
 -->