<?xml version="1.0" encoding="UTF-8"?>

<!-- generated on Thu Sep 24 20:59:35 2015 by SUMO netconvert Version 0.21.0
<?xml version="1.0" encoding="UTF-8"?>

<configuration xmlns:xsi="http://www.w3.org/2001/XMLSchema-instance" xsi:noNamespaceSchemaLocation="http://sumo-sim.org/xsd/netconvertConfiguration.xsd">

    <input>
        <node-files value="mfcv.nod.xml"/>
        <edge-files value="mfcv.edg.xml"/>
    </input>

    <output>
        <output-file value="mfcv.net.xml"/>
    </output>

</configuration>
-->

<net version="0.13" xmlns:xsi="http://www.w3.org/2001/XMLSchema-instance" xsi:noNamespaceSchemaLocation="http://sumo-sim.org/xsd/net_file.xsd">

    <location netOffset="0.00,0.00" convBoundary="0.00,0.00,2000.00,5.00" origBoundary="0.00,0.00,2000.00,5.00" projParameter="!"/>

    <edge id=":10a_0" function="internal">
        <lane id=":10a_0_0" index="0" speed="100.00" length="0.10" width="3.00" shape="1800.00,-1.55 1800.00,-1.55"/>
    </edge>
    <edge id=":10b_0" function="internal">
        <lane id=":10b_0_0" index="0" speed="100.00" length="0.10" width="3.00" shape="1800.00,6.55 1800.00,6.55"/>
    </edge>
    <edge id=":2a_0" function="internal">
        <lane id=":2a_0_0" index="0" speed="100.00" length="0.10" width="3.00" shape="200.00,-1.55 200.00,-1.55"/>
    </edge>
    <edge id=":2b_0" function="internal">
        <lane id=":2b_0_0" index="0" speed="100.00" length="0.10" width="3.00" shape="200.00,6.55 200.00,6.55"/>
    </edge>
    <edge id=":3a_0" function="internal">
        <lane id=":3a_0_0" index="0" speed="100.00" length="0.10" width="3.00" shape="400.00,-1.55 400.00,-1.55"/>
    </edge>
    <edge id=":3b_0" function="internal">
        <lane id=":3b_0_0" index="0" speed="100.00" length="0.10" width="3.00" shape="400.00,6.55 400.00,6.55"/>
    </edge>
    <edge id=":4a_0" function="internal">
        <lane id=":4a_0_0" index="0" speed="100.00" length="0.10" width="3.00" shape="600.00,-1.55 600.00,-1.55"/>
    </edge>
    <edge id=":4b_0" function="internal">
        <lane id=":4b_0_0" index="0" speed="100.00" length="0.10" width="3.00" shape="600.00,6.55 600.00,6.55"/>
    </edge>
    <edge id=":5a_0" function="internal">
        <lane id=":5a_0_0" index="0" speed="100.00" length="0.10" width="3.00" shape="800.00,-1.55 800.00,-1.55"/>
    </edge>
    <edge id=":5b_0" function="internal">
        <lane id=":5b_0_0" index="0" speed="100.00" length="0.10" width="3.00" shape="800.00,6.55 800.00,6.55"/>
    </edge>
    <edge id=":6a_0" function="internal">
        <lane id=":6a_0_0" index="0" speed="100.00" length="0.10" width="3.00" shape="1000.00,-1.55 1000.00,-1.55"/>
    </edge>
    <edge id=":6b_0" function="internal">
        <lane id=":6b_0_0" index="0" speed="100.00" length="0.10" width="3.00" shape="1000.00,6.55 1000.00,6.55"/>
    </edge>
    <edge id=":7a_0" function="internal">
        <lane id=":7a_0_0" index="0" speed="100.00" length="0.10" width="3.00" shape="1200.00,-1.55 1200.00,-1.55"/>
    </edge>
    <edge id=":7b_0" function="internal">
        <lane id=":7b_0_0" index="0" speed="100.00" length="0.10" width="3.00" shape="1200.00,6.55 1200.00,6.55"/>
    </edge>
    <edge id=":8a_0" function="internal">
        <lane id=":8a_0_0" index="0" speed="100.00" length="0.10" width="3.00" shape="1400.00,-1.55 1400.00,-1.55"/>
    </edge>
    <edge id=":8b_0" function="internal">
        <lane id=":8b_0_0" index="0" speed="100.00" length="0.10" width="3.00" shape="1400.00,6.55 1400.00,6.55"/>
    </edge>
    <edge id=":9a_0" function="internal">
        <lane id=":9a_0_0" index="0" speed="100.00" length="0.10" width="3.00" shape="1600.00,-1.55 1600.00,-1.55"/>
    </edge>
    <edge id=":9b_0" function="internal">
        <lane id=":9b_0_0" index="0" speed="100.00" length="0.10" width="3.00" shape="1600.00,6.55 1600.00,6.55"/>
    </edge>

    <edge id="10ato11a" from="10a" to="11a" priority="1">
        <lane id="10ato11a_0" index="0" speed="100.00" length="200.00" width="3.00" shape="1800.00,-1.55 2000.00,-1.55"/>
    </edge>
    <edge id="10bto9b" from="10b" to="9b" priority="1">
        <lane id="10bto9b_0" index="0" speed="100.00" length="200.00" width="3.00" shape="1800.00,6.55 1600.00,6.55"/>
    </edge>
    <edge id="11bto10b" from="11b" to="10b" priority="1">
        <lane id="11bto10b_0" index="0" speed="100.00" length="200.00" width="3.00" shape="2000.00,6.55 1800.00,6.55"/>
    </edge>
    <edge id="1ato2a" from="1a" to="2a" priority="1">
        <lane id="1ato2a_0" index="0" speed="100.00" length="200.00" width="3.00" shape="0.00,-1.55 200.00,-1.55"/>
    </edge>
    <edge id="2ato3a" from="2a" to="3a" priority="1">
        <lane id="2ato3a_0" index="0" speed="100.00" length="200.00" width="3.00" shape="200.00,-1.55 400.00,-1.55"/>
    </edge>
    <edge id="2bto1b" from="2b" to="1b" priority="1">
        <lane id="2bto1b_0" index="0" speed="100.00" length="200.00" width="3.00" shape="200.00,6.55 0.00,6.55"/>
    </edge>
    <edge id="3ato4a" from="3a" to="4a" priority="1">
        <lane id="3ato4a_0" index="0" speed="100.00" length="200.00" width="3.00" shape="400.00,-1.55 600.00,-1.55"/>
    </edge>
    <edge id="3bto2b" from="3b" to="2b" priority="1">
        <lane id="3bto2b_0" index="0" speed="100.00" length="200.00" width="3.00" shape="400.00,6.55 200.00,6.55"/>
    </edge>
    <edge id="4ato5a" from="4a" to="5a" priority="1">
        <lane id="4ato5a_0" index="0" speed="100.00" length="200.00" width="3.00" shape="600.00,-1.55 800.00,-1.55"/>
    </edge>
    <edge id="4bto3b" from="4b" to="3b" priority="1">
        <lane id="4bto3b_0" index="0" speed="100.00" length="200.00" width="3.00" shape="600.00,6.55 400.00,6.55"/>
    </edge>
    <edge id="5ato6a" from="5a" to="6a" priority="1">
        <lane id="5ato6a_0" index="0" speed="100.00" length="200.00" width="3.00" shape="800.00,-1.55 1000.00,-1.55"/>
    </edge>
    <edge id="5bto4b" from="5b" to="4b" priority="1">
        <lane id="5bto4b_0" index="0" speed="100.00" length="200.00" width="3.00" shape="800.00,6.55 600.00,6.55"/>
    </edge>
    <edge id="6ato7a" from="6a" to="7a" priority="1">
        <lane id="6ato7a_0" index="0" speed="100.00" length="200.00" width="3.00" shape="1000.00,-1.55 1200.00,-1.55"/>
    </edge>
    <edge id="6bto5b" from="6b" to="5b" priority="1">
        <lane id="6bto5b_0" index="0" speed="100.00" length="200.00" width="3.00" shape="1000.00,6.55 800.00,6.55"/>
    </edge>
    <edge id="7ato8a" from="7a" to="8a" priority="1">
        <lane id="7ato8a_0" index="0" speed="100.00" length="200.00" width="3.00" shape="1200.00,-1.55 1400.00,-1.55"/>
    </edge>
    <edge id="7bto6b" from="7b" to="6b" priority="1">
        <lane id="7bto6b_0" index="0" speed="100.00" length="200.00" width="3.00" shape="1200.00,6.55 1000.00,6.55"/>
    </edge>
    <edge id="8ato9a" from="8a" to="9a" priority="1">
        <lane id="8ato9a_0" index="0" speed="100.00" length="200.00" width="3.00" shape="1400.00,-1.55 1600.00,-1.55"/>
    </edge>
    <edge id="8bto7b" from="8b" to="7b" priority="1">
        <lane id="8bto7b_0" index="0" speed="100.00" length="200.00" width="3.00" shape="1400.00,6.55 1200.00,6.55"/>
    </edge>
    <edge id="9ato10a" from="9a" to="10a" priority="1">
        <lane id="9ato10a_0" index="0" speed="100.00" length="200.00" width="3.00" shape="1600.00,-1.55 1800.00,-1.55"/>
    </edge>
    <edge id="9bto8b" from="9b" to="8b" priority="1">
        <lane id="9bto8b_0" index="0" speed="100.00" length="200.00" width="3.00" shape="1600.00,6.55 1400.00,6.55"/>
    </edge>

    <junction id="10a" type="priority" x="1800.00" y="0.00" incLanes="9ato10a_0" intLanes=":10a_0_0" shape="1800.00,0.05 1800.00,-3.15 1800.00,0.05">
        <request index="0" response="0" foes="0" cont="0"/>
    </junction>
    <junction id="10b" type="priority" x="1800.00" y="5.00" incLanes="11bto10b_0" intLanes=":10b_0_0" shape="1800.00,8.15 1800.00,4.95 1800.00,8.15">
        <request index="0" response="0" foes="0" cont="0"/>
    </junction>
    <junction id="11a" type="unregulated" x="2000.00" y="0.00" incLanes="10ato11a_0" intLanes="" shape="2000.00,-3.15 2000.00,0.05"/>
    <junction id="11b" type="unregulated" x="2000.00" y="5.00" incLanes="" intLanes="" shape="2000.00,4.95 2000.00,8.15"/>
    <junction id="1a" type="unregulated" x="0.00" y="0.00" incLanes="" intLanes="" shape="0.00,0.05 -0.00,-3.15"/>
    <junction id="1b" type="unregulated" x="0.00" y="5.00" incLanes="2bto1b_0" intLanes="" shape="0.00,8.15 -0.00,4.95"/>
    <junction id="2a" type="priority" x="200.00" y="0.00" incLanes="1ato2a_0" intLanes=":2a_0_0" shape="200.00,0.05 200.00,-3.15 200.00,0.05">
        <request index="0" response="0" foes="0" cont="0"/>
    </junction>
    <junction id="2b" type="priority" x="200.00" y="5.00" incLanes="3bto2b_0" intLanes=":2b_0_0" shape="200.00,8.15 200.00,4.95 200.00,8.15">
        <request index="0" response="0" foes="0" cont="0"/>
    </junction>
    <junction id="3a" type="priority" x="400.00" y="0.00" incLanes="2ato3a_0" intLanes=":3a_0_0" shape="400.00,0.05 400.00,-3.15 400.00,0.05">
        <request index="0" response="0" foes="0" cont="0"/>
    </junction>
    <junction id="3b" type="priority" x="400.00" y="5.00" incLanes="4bto3b_0" intLanes=":3b_0_0" shape="400.00,8.15 400.00,4.95 400.00,8.15">
        <request index="0" response="0" foes="0" cont="0"/>
    </junction>
    <junction id="4a" type="priority" x="600.00" y="0.00" incLanes="3ato4a_0" intLanes=":4a_0_0" shape="600.00,0.05 600.00,-3.15 600.00,0.05">
        <request index="0" response="0" foes="0" cont="0"/>
    </junction>
    <junction id="4b" type="priority" x="600.00" y="5.00" incLanes="5bto4b_0" intLanes=":4b_0_0" shape="600.00,8.15 600.00,4.95 600.00,8.15">
        <request index="0" response="0" foes="0" cont="0"/>
    </junction>
    <junction id="5a" type="priority" x="800.00" y="0.00" incLanes="4ato5a_0" intLanes=":5a_0_0" shape="800.00,0.05 800.00,-3.15 800.00,0.05">
        <request index="0" response="0" foes="0" cont="0"/>
    </junction>
    <junction id="5b" type="priority" x="800.00" y="5.00" incLanes="6bto5b_0" intLanes=":5b_0_0" shape="800.00,8.15 800.00,4.95 800.00,8.15">
        <request index="0" response="0" foes="0" cont="0"/>
    </junction>
    <junction id="6a" type="priority" x="1000.00" y="0.00" incLanes="5ato6a_0" intLanes=":6a_0_0" shape="1000.00,0.05 1000.00,-3.15 1000.00,0.05">
        <request index="0" response="0" foes="0" cont="0"/>
    </junction>
    <junction id="6b" type="priority" x="1000.00" y="5.00" incLanes="7bto6b_0" intLanes=":6b_0_0" shape="1000.00,8.15 1000.00,4.95 1000.00,8.15">
        <request index="0" response="0" foes="0" cont="0"/>
    </junction>
    <junction id="7a" type="priority" x="1200.00" y="0.00" incLanes="6ato7a_0" intLanes=":7a_0_0" shape="1200.00,0.05 1200.00,-3.15 1200.00,0.05">
        <request index="0" response="0" foes="0" cont="0"/>
    </junction>
    <junction id="7b" type="priority" x="1200.00" y="5.00" incLanes="8bto7b_0" intLanes=":7b_0_0" shape="1200.00,8.15 1200.00,4.95 1200.00,8.15">
        <request index="0" response="0" foes="0" cont="0"/>
    </junction>
    <junction id="8a" type="priority" x="1400.00" y="0.00" incLanes="7ato8a_0" intLanes=":8a_0_0" shape="1400.00,0.05 1400.00,-3.15 1400.00,0.05">
        <request index="0" response="0" foes="0" cont="0"/>
    </junction>
    <junction id="8b" type="priority" x="1400.00" y="5.00" incLanes="9bto8b_0" intLanes=":8b_0_0" shape="1400.00,8.15 1400.00,4.95 1400.00,8.15">
        <request index="0" response="0" foes="0" cont="0"/>
    </junction>
    <junction id="9a" type="priority" x="1600.00" y="0.00" incLanes="8ato9a_0" intLanes=":9a_0_0" shape="1600.00,0.05 1600.00,-3.15 1600.00,0.05">
        <request index="0" response="0" foes="0" cont="0"/>
    </junction>
    <junction id="9b" type="priority" x="1600.00" y="5.00" incLanes="10bto9b_0" intLanes=":9b_0_0" shape="1600.00,8.15 1600.00,4.95 1600.00,8.15">
        <request index="0" response="0" foes="0" cont="0"/>
    </junction>

    <connection from="10bto9b" to="9bto8b" fromLane="0" toLane="0" via=":9b_0_0" dir="s" state="M"/>
    <connection from="11bto10b" to="10bto9b" fromLane="0" toLane="0" via=":10b_0_0" dir="s" state="M"/>
    <connection from="1ato2a" to="2ato3a" fromLane="0" toLane="0" via=":2a_0_0" dir="s" state="M"/>
    <connection from="2ato3a" to="3ato4a" fromLane="0" toLane="0" via=":3a_0_0" dir="s" state="M"/>
    <connection from="3ato4a" to="4ato5a" fromLane="0" toLane="0" via=":4a_0_0" dir="s" state="M"/>
    <connection from="3bto2b" to="2bto1b" fromLane="0" toLane="0" via=":2b_0_0" dir="s" state="M"/>
    <connection from="4ato5a" to="5ato6a" fromLane="0" toLane="0" via=":5a_0_0" dir="s" state="M"/>
    <connection from="4bto3b" to="3bto2b" fromLane="0" toLane="0" via=":3b_0_0" dir="s" state="M"/>
    <connection from="5ato6a" to="6ato7a" fromLane="0" toLane="0" via=":6a_0_0" dir="s" state="M"/>
    <connection from="5bto4b" to="4bto3b" fromLane="0" toLane="0" via=":4b_0_0" dir="s" state="M"/>
    <connection from="6ato7a" to="7ato8a" fromLane="0" toLane="0" via=":7a_0_0" dir="s" state="M"/>
    <connection from="6bto5b" to="5bto4b" fromLane="0" toLane="0" via=":5b_0_0" dir="s" state="M"/>
    <connection from="7ato8a" to="8ato9a" fromLane="0" toLane="0" via=":8a_0_0" dir="s" state="M"/>
    <connection from="7bto6b" to="6bto5b" fromLane="0" toLane="0" via=":6b_0_0" dir="s" state="M"/>
    <connection from="8ato9a" to="9ato10a" fromLane="0" toLane="0" via=":9a_0_0" dir="s" state="M"/>
    <connection from="8bto7b" to="7bto6b" fromLane="0" toLane="0" via=":7b_0_0" dir="s" state="M"/>
    <connection from="9ato10a" to="10ato11a" fromLane="0" toLane="0" via=":10a_0_0" dir="s" state="M"/>
    <connection from="9bto8b" to="8bto7b" fromLane="0" toLane="0" via=":8b_0_0" dir="s" state="M"/>

    <connection from=":10a_0" to="10ato11a" fromLane="0" toLane="0" dir="s" state="M"/>
    <connection from=":10b_0" to="10bto9b" fromLane="0" toLane="0" dir="s" state="M"/>
    <connection from=":2a_0" to="2ato3a" fromLane="0" toLane="0" dir="s" state="M"/>
    <connection from=":2b_0" to="2bto1b" fromLane="0" toLane="0" dir="s" state="M"/>
    <connection from=":3a_0" to="3ato4a" fromLane="0" toLane="0" dir="s" state="M"/>
    <connection from=":3b_0" to="3bto2b" fromLane="0" toLane="0" dir="s" state="M"/>
    <connection from=":4a_0" to="4ato5a" fromLane="0" toLane="0" dir="s" state="M"/>
    <connection from=":4b_0" to="4bto3b" fromLane="0" toLane="0" dir="s" state="M"/>
    <connection from=":5a_0" to="5ato6a" fromLane="0" toLane="0" dir="s" state="M"/>
    <connection from=":5b_0" to="5bto4b" fromLane="0" toLane="0" dir="s" state="M"/>
    <connection from=":6a_0" to="6ato7a" fromLane="0" toLane="0" dir="s" state="M"/>
    <connection from=":6b_0" to="6bto5b" fromLane="0" toLane="0" dir="s" state="M"/>
    <connection from=":7a_0" to="7ato8a" fromLane="0" toLane="0" dir="s" state="M"/>
    <connection from=":7b_0" to="7bto6b" fromLane="0" toLane="0" dir="s" state="M"/>
    <connection from=":8a_0" to="8ato9a" fromLane="0" toLane="0" dir="s" state="M"/>
    <connection from=":8b_0" to="8bto7b" fromLane="0" toLane="0" dir="s" state="M"/>
    <connection from=":9a_0" to="9ato10a" fromLane="0" toLane="0" dir="s" state="M"/>
    <connection from=":9b_0" to="9bto8b" fromLane="0" toLane="0" dir="s" state="M"/>

</net>
