<?xml version="1.0" encoding="UTF-8"?>

<!-- generated on Wed Jul  9 11:18:58 2014 by SUMO duarouter Version 0.21.0
<?xml version="1.0" encoding="UTF-8"?>

<configuration xmlns:xsi="http://www.w3.org/2001/XMLSchema-instance" xsi:noNamespaceSchemaLocation="http://sumo-sim.org/xsd/duarouterConfiguration.xsd">

    <input>
        <net-file value="manhattan.net.xml"/>
        <trip-files value="manhattan.trips.xml"/>
    </input>

    <output>
        <output-file value="manhattan.rou.xml"/>
    </output>

</configuration>
-->

<routes xmlns:xsi="http://www.w3.org/2001/XMLSchema-instance" xsi:noNamespaceSchemaLocation="http://sumo-sim.org/xsd/routes_file.xsd">
    <vehicle id="0" type="vTypeDist" depart="0.00" departLane="best" departPos="random" departSpeed="random">
        <route edges="9/9to10/9 10/9to9/9 9/9to8/9 8/9to7/9 7/9to6/9 6/9to5/9 5/9to4/9 4/9to3/9 3/9to3/10"/>
    </vehicle>
    <vehicle id="1" type="vTypeDist" depart="0.80" departLane="best" departPos="random" departSpeed="random">
        <route edges="6/25to6/26 6/26to6/25 6/25to6/24 6/24to6/23 6/23to6/22 6/22to6/21 6/21to6/20 6/20to6/19 6/19to6/18 6/18to6/17 6/17to6/16 6/16to6/15 6/15to6/14 6/14to6/13 6/13to6/12 6/12to6/11 6/11to6/10 6/10to6/9 6/9to6/8 6/8to6/7 6/7to6/6 6/6to6/5 6/5to6/4 6/4to6/3 6/3to7/3 7/3to8/3 8/3to8/2"/>
    </vehicle>
    <vehicle id="2" type="vTypeDist" depart="1.60" departLane="best" departPos="random" departSpeed="random">
        <route edges="6/28to6/27 6/27to6/26 6/26to6/25 6/25to6/24 6/24to6/23 6/23to6/22 6/22to6/21 6/21to6/20 6/20to6/19 6/19to6/18 6/18to6/17 6/17to6/16 6/16to6/15 6/15to6/14 6/14to6/13 6/13to6/12 6/12to6/11 6/11to6/10 6/10to6/9 6/9to6/8 6/8to6/7 6/7to6/6 6/6to6/5 6/5to6/4 6/4to6/3 6/3to6/2 6/2to6/1 6/1to6/0 6/0to5/0 5/0to4/0 4/0to3/0 3/0to2/0 2/0to1/0"/>
    </vehicle>
    <vehicle id="3" type="vTypeDist" depart="2.40" departLane="best" departPos="random" departSpeed="random">
        <route edges="9/5to10/5 10/5to10/6 10/6to10/7 10/7to10/8 10/8to10/9 10/9to10/10 10/10to9/10 9/10to9/11 9/11to9/12 9/12to9/13 9/13to8/13 8/13to7/13 7/13to6/13 6/13to5/13 5/13to4/13 4/13to3/13 3/13to2/13"/>
    </vehicle>
    <vehicle id="4" type="vTypeDist" depart="3.20" departLane="best" departPos="random" departSpeed="random">
        <route edges="4/24to5/24 5/24to5/23 5/23to5/22 5/22to5/21 5/21to5/20 5/20to5/19 5/19to5/18 5/18to5/17 5/17to5/16 5/16to5/15 5/15to5/14 5/14to5/13 5/13to5/12 5/12to5/11 5/11to5/10 5/10to5/9 5/9to5/8 5/8to5/7 5/7to5/6 5/6to5/5 5/5to5/6"/>
    </vehicle>
    <vehicle id="5" type="vTypeDist" depart="4.00" departLane="best" departPos="random" departSpeed="random">
        <route edges="7/1to7/0 7/0to7/1 7/1to7/2 7/2to7/3 7/3to7/4 7/4to7/5 7/5to7/6 7/6to7/7 7/7to7/8 7/8to7/9 7/9to7/10 7/10to7/11 7/11to7/12 7/12to7/13 7/13to7/14 7/14to7/15 7/15to7/16 7/16to6/16 6/16to5/16 5/16to4/16 4/16to3/16 3/16to2/16 2/16to1/16 1/16to1/17"/>
    </vehicle>
    <vehicle id="6" type="vTypeDist" depart="4.80" departLane="best" departPos="random" departSpeed="random">
        <route edges="10/23to10/24 10/24to10/23 10/23to10/22 10/22to10/21 10/21to9/21 9/21to8/21 8/21to7/21 7/21to6/21 6/21to5/21 5/21to4/21 4/21to3/21 3/21to4/21"/>
    </vehicle>
    <vehicle id="7" type="vTypeDist" depart="5.60" departLane="best" departPos="random" departSpeed="random">
        <route edges="right29to10/29 10/29to10/28 10/28to10/27 10/27to10/26 10/26to10/25 10/25to10/24 10/24to10/23 10/23to10/22 10/22to10/21 10/21to10/20 10/20to10/19 10/19to10/18 10/18to10/17 10/17to10/16 10/16to10/15 10/15to10/14 10/14to10/13 10/13to10/12 10/12to9/12 9/12to8/12 8/12to7/12 7/12to6/12 6/12to5/12 5/12to4/12 4/12to3/12 3/12to2/12 2/12to1/12 1/12to0/12 0/12to0/11 0/11to0/10"/>
    </vehicle>
    <!--
    <vehicle id="8" type="vTypeDist" depart="6.40" departLane="best" departPos="random" departSpeed="random">
        <route edges="right12to10/12 10/12to10/13 10/13to10/14 10/14to10/15 10/15to10/16 10/16to10/17 10/17to10/18 10/18to10/19 10/19to10/20 10/20to10/21 10/21to10/22 10/22to10/23 10/23to10/24 10/24to10/25 10/25to10/26 10/26to10/27 10/27to10/28 10/28to9/28 9/28to8/28 8/28to7/28 7/28to6/28 6/28to5/28 5/28to4/28 4/28to3/28 3/28to4/28"/>
    </vehicle>
    <vehicle id="9" type="vTypeDist" depart="7.20" departLane="best" departPos="random" departSpeed="random">
        <route edges="6/2to7/2 7/2to7/3 7/3to7/4 7/4to7/5 7/5to7/6 7/6to7/7 7/7to7/8 7/8to7/9 7/9to7/10 7/10to7/11 7/11to7/12 7/12to7/13 7/13to7/14 7/14to7/15 7/15to7/16 7/16to7/17 7/17to7/18 7/18to7/19"/>
    </vehicle>
    <vehicle id="10" type="vTypeDist" depart="8.00" departLane="best" departPos="random" departSpeed="random">
        <route edges="0/20to1/20 1/20to1/21 1/21to1/22 1/22to1/23 1/23to1/24 1/24to1/25 1/25to2/25 2/25to3/25 3/25to4/25 4/25to5/25 5/25to6/25 6/25to6/24"/>
    </vehicle>
    <vehicle id="11" type="vTypeDist" depart="8.80" departLane="best" departPos="random" departSpeed="random">
        <route edges="10/19to10/18 10/18to10/19 10/19to10/20 10/20to10/21 10/21to10/22 10/22to10/23 10/23to10/24 10/24to10/25 10/25to9/25 9/25to9/26 9/26to9/27 9/27to9/28 9/28to8/28 8/28to7/28 7/28to6/28 6/28to5/28 5/28to4/28 4/28to3/28 3/28to4/28"/>
    </vehicle>
    <vehicle id="12" type="vTypeDist" depart="9.60" departLane="best" departPos="random" departSpeed="random">
        <route edges="1/26to0/26 0/26to0/25 0/25to0/24 0/24to0/23 0/23to0/22 0/22to0/21 0/21to1/21 1/21to1/20 1/20to1/19 1/19to1/18 1/18to1/17 1/17to1/16 1/16to1/15 1/15to1/14 1/14to2/14 2/14to3/14 3/14to4/14 4/14to5/14 5/14to6/14 6/14to7/14 7/14to8/14"/>
    </vehicle>
    <vehicle id="13" type="vTypeDist" depart="10.40" departLane="best" departPos="random" departSpeed="random">
        <route edges="0/29to1/29 1/29to1/28 1/28to1/27 1/27to1/26 1/26to1/25 1/25to1/24 1/24to0/24 0/24to0/23 0/23to0/22 0/22to0/21 0/21to0/20 0/20to0/19 0/19to0/18 0/18to0/17 0/17to0/16 0/16to0/15 0/15to0/14 0/14to0/13 0/13to0/12 0/12to0/11 0/11to0/10 0/10to0/9 0/9toleft9"/>
    </vehicle>
    <vehicle id="14" type="vTypeDist" depart="11.20" departLane="best" departPos="random" departSpeed="random">
        <route edges="left17to0/17 0/17to0/16 0/16to0/15 0/15to0/14 0/14to1/14 1/14to2/14 2/14to3/14 3/14to4/14 4/14to5/14 5/14to6/14"/>
    </vehicle>
    <vehicle id="15" type="vTypeDist" depart="12.00" departLane="best" departPos="random" departSpeed="random">
        <route edges="1/30to0/30 0/30to0/29 0/29to0/28 0/28to0/27 0/27to0/26 0/26to0/25 0/25to1/25 1/25to1/24 1/24to1/23 1/23to1/22 1/22to1/21 1/21to1/20 1/20to1/19 1/19to1/18 1/18to1/17 1/17to1/16 1/16to1/15 1/15to2/15 2/15to3/15 3/15to4/15 4/15to5/15 5/15to6/15 6/15to7/15 7/15to6/15"/>
    </vehicle>
    <vehicle id="16" type="vTypeDist" depart="12.80" departLane="best" departPos="random" departSpeed="random">
        <route edges="3/28to4/28 4/28to4/27 4/27to4/26 4/26to4/25 4/25to4/24 4/24to4/23 4/23to4/22 4/22to4/21 4/21to4/20 4/20to4/19 4/19to4/18 4/18to4/17 4/17to4/16 4/16to4/15 4/15to4/14 4/14to4/13 4/13to4/12 4/12to4/11 4/11to4/10 4/10to4/9 4/9to4/8 4/8to4/7 4/7to4/6 4/6to4/5 4/5to4/4 4/4to4/3 4/3to4/2 4/2to4/1 4/1to4/0 4/0to5/0 5/0to6/0 6/0to7/0 7/0to8/0 8/0to9/0 9/0to9/1"/>
    </vehicle>
    <vehicle id="17" type="vTypeDist" depart="13.60" departLane="best" departPos="random" departSpeed="random">
        <route edges="3/27to3/28 3/28to3/27 3/27to3/26 3/26to3/25 3/25to3/24 3/24to3/23 3/23to3/22 3/22to3/21 3/21to3/20 3/20to3/19 3/19to3/18 3/18to3/17 3/17to3/16 3/16to3/15 3/15to3/14 3/14to3/13 3/13to3/12 3/12to3/11 3/11to3/10 3/10to3/9 3/9to3/8 3/8to3/7 3/7to3/6 3/6to3/5 3/5to4/5 4/5to5/5"/>
    </vehicle>
    <vehicle id="18" type="vTypeDist" depart="14.40" departLane="best" departPos="random" departSpeed="random">
        <route edges="0/11to0/12 0/12to0/13 0/13to0/14 0/14to0/15 0/15to0/16 0/16to0/17 0/17to0/18 0/18to0/19 0/19to0/20 0/20to0/21 0/21to0/22 0/22to0/23 0/23to0/24 0/24to0/25 0/25to0/26 0/26to0/27 0/27to0/28 0/28to0/29 0/29to0/30 0/30to1/30 1/30to2/30 2/30to1/30"/>
    </vehicle>
    <vehicle id="19" type="vTypeDist" depart="15.20" departLane="best" departPos="random" departSpeed="random">
        <route edges="9/27to9/28 9/28to9/27 9/27to9/26 9/26to9/25 9/25to9/24 9/24to9/23 9/23to9/22 9/22to9/21 9/21to9/20 9/20to9/19 9/19to9/18 9/18to9/17 9/17to9/16 9/16to9/15 9/15to9/14 9/14to9/13 9/13to9/12 9/12to9/11 9/11to9/10 9/10to9/9 9/9to9/8 9/8to9/7 9/7to9/6 9/6to9/5 9/5to9/4 9/4to9/3 9/3to8/3 8/3to7/3 7/3to6/3 6/3to5/3 5/3to4/3"/>
    </vehicle>
    <vehicle id="20" type="vTypeDist" depart="16.00" departLane="best" departPos="random" departSpeed="random">
        <route edges="3/0to2/0 2/0to2/1 2/1to2/2 2/2to2/3 2/3to2/4 2/4to2/5 2/5to1/5 1/5to1/6 1/6to1/7 1/7to1/8 1/8to1/9 1/9to1/10 1/10to1/11 1/11to1/12 1/12to1/13 1/13to1/14 1/14to1/15 1/15to1/16 1/16to1/17 1/17to1/18 1/18to1/19 1/19to0/19 0/19to0/20"/>
    </vehicle>
    <vehicle id="21" type="vTypeDist" depart="16.80" departLane="best" departPos="random" departSpeed="random">
        <route edges="3/5to2/5 2/5to2/4 2/4to2/3 2/3to2/2 2/2to2/1 2/1to2/0 2/0to3/0 3/0to4/0 4/0to5/0 5/0to6/0 6/0to7/0 7/0to8/0 8/0to9/0 9/0to10/0 10/0to10/1"/>
    </vehicle>
    <vehicle id="22" type="vTypeDist" depart="17.60" departLane="best" departPos="random" departSpeed="random">
        <route edges="0/27to0/26 0/26to0/25 0/25to0/24 0/24to0/23 0/23to0/22 0/22to0/21 0/21to0/20 0/20to0/19 0/19to1/19 1/19to1/18 1/18to2/18 2/18to3/18"/>
    </vehicle>
    <vehicle id="23" type="vTypeDist" depart="18.40" departLane="best" departPos="random" departSpeed="random">
        <route edges="right22to10/22 10/22to10/21 10/21to10/20 10/20to10/19 10/19to10/18 10/18to10/17 10/17to10/16 10/16to10/15 10/15to10/14 10/14to10/13 10/13to10/12 10/12to10/11 10/11to10/10 10/10to10/9 10/9to10/8 10/8to9/8 9/8to8/8 8/8to7/8 7/8to6/8 6/8to5/8 5/8to4/8 4/8to3/8 3/8to3/9"/>
    </vehicle>
    <vehicle id="24" type="vTypeDist" depart="19.20" departLane="best" departPos="random" departSpeed="random">
        <route edges="2/25to2/24 2/24to2/23 2/23to2/22 2/22to2/21 2/21to2/20 2/20to2/19 2/19to2/18 2/18to2/17 2/17to3/17 3/17to3/16 3/16to3/15 3/15to4/15 4/15to5/15 5/15to6/15 6/15to7/15 7/15to8/15 8/15to9/15 9/15to10/15 10/15to10/14"/>
    </vehicle>
    <vehicle id="25" type="vTypeDist" depart="20.00" departLane="best" departPos="random" departSpeed="random">
        <route edges="10/1to9/1 9/1to9/2 9/2to9/3 9/3to9/4 9/4to9/5 9/5to9/6 9/6to8/6 8/6to8/7 8/7to8/8 8/8to8/9 8/9to8/10 8/10to8/11 8/11to8/12 8/12to8/13 8/13to8/14 8/14to8/15 8/15to8/16 8/16to8/17 8/17to8/18 8/18to8/19 8/19to8/20"/>
    </vehicle>
    <vehicle id="26" type="vTypeDist" depart="20.80" departLane="best" departPos="random" departSpeed="random">
        <route edges="1/19to1/18 1/18to1/17 1/17to1/16 1/16to1/15 1/15to1/14 1/14to1/13 1/13to1/12 1/12to1/11 1/11to1/10 1/10to1/9 1/9to1/8 1/8to1/7 1/7to2/7 2/7to3/7 3/7to4/7 4/7to5/7 5/7to6/7 6/7to7/7 7/7to8/7 8/7to9/7 9/7to9/6"/>
    </vehicle>
    <vehicle id="27" type="vTypeDist" depart="21.60" departLane="best" departPos="random" departSpeed="random">
        <route edges="8/23to7/23 7/23to7/22 7/22to7/21 7/21to7/20 7/20to6/20 6/20to5/20 5/20to4/20 4/20to3/20 3/20to2/20 2/20to2/21"/>
    </vehicle>
    <vehicle id="28" type="vTypeDist" depart="22.40" departLane="best" departPos="random" departSpeed="random">
        <route edges="10/12to10/13 10/13to10/14 10/14to10/15 10/15to10/16 10/16to10/17 10/17to10/18 10/18to10/19 10/19to10/20 10/20to10/21 10/21to10/22 10/22to10/23 10/23to10/24 10/24to10/25 10/25to10/26 10/26to10/27 10/27to10/26"/>
    </vehicle>
    <vehicle id="29" type="vTypeDist" depart="23.20" departLane="best" departPos="random" departSpeed="random">
        <route edges="10/26to9/26 9/26to9/25 9/25to9/24 9/24to9/23 9/23to9/22 9/22to9/21 9/21to8/21 8/21to8/20 8/20to8/19 8/19to8/18 8/18to8/17 8/17to8/16 8/16to8/15 8/15to8/14 8/14to8/13 8/13to8/12 8/12to8/11 8/11to8/10 8/10to8/9 8/9to8/8 8/8to8/7 8/7to8/6 8/6to8/5 8/5to7/5 7/5to6/5 6/5to5/5 5/5to4/5 4/5to4/6"/>
    </vehicle>
    <vehicle id="30" type="vTypeDist" depart="24.00" departLane="best" departPos="random" departSpeed="random">
        <route edges="9/12to8/12 8/12to8/13 8/13to8/14 8/14to8/15 8/15to8/16 8/16to8/17 8/17to7/17 7/17to7/18 7/18to7/19 7/19to7/20 7/20to7/21 7/21to7/22 7/22to7/23 7/23to6/23 6/23to5/23 5/23to4/23 4/23to3/23 3/23to2/23 2/23to3/23"/>
    </vehicle>
    <vehicle id="31" type="vTypeDist" depart="24.80" departLane="best" departPos="random" departSpeed="random">
        <route edges="8/28to8/29 8/29to8/28 8/28to8/27 8/27to8/26 8/26to8/25 8/25to8/24 8/24to8/23 8/23to8/22 8/22to7/22 7/22to7/21 7/21to7/20 7/20to6/20 6/20to5/20 5/20to4/20 4/20to3/20 3/20to3/19"/>
    </vehicle>
    <vehicle id="32" type="vTypeDist" depart="25.60" departLane="best" departPos="random" departSpeed="random">
        <route edges="5/26to5/25 5/25to5/24 5/24to5/23 5/23to5/22 5/22to5/21 5/21to5/20 5/20to5/19 5/19to5/18 5/18to5/17 5/17to5/16 5/16to5/15 5/15to5/14 5/14to5/13 5/13to5/12 5/12to5/11 5/11to5/10 5/10to5/9 5/9to5/8 5/8to5/7 5/7to5/6 5/6to5/5 5/5to4/5 4/5to3/5 3/5to2/5 2/5to2/6"/>
    </vehicle>
    <vehicle id="33" type="vTypeDist" depart="26.40" departLane="best" departPos="random" departSpeed="random">
        <route edges="1/0to0/0 0/0to0/1 0/1to0/2 0/2to0/3 0/3to0/4 0/4to0/5 0/5to1/5 1/5to1/6 1/6to1/7 1/7to1/8 1/8to1/9 1/9to1/10 1/10to1/11 1/11to1/12 1/12to1/13 1/13to1/14 1/14to1/15 1/15to1/16 1/16to1/17 1/17to1/18 1/18to1/19 1/19to1/20 1/20to1/21 1/21to1/22 1/22to1/23 1/23to1/24 1/24to1/25 1/25to1/26 1/26to2/26 2/26to3/26 3/26to4/26 4/26to5/26 5/26to6/26 6/26to7/26 7/26to7/27 7/27to7/28 7/28to7/29 7/29to7/30 7/30to8/30 8/30to8/29"/>
    </vehicle>
    <vehicle id="34" type="vTypeDist" depart="27.20" departLane="best" departPos="random" departSpeed="random">
        <route edges="0/13to0/12 0/12to0/13 0/13to0/14 0/14to0/15 0/15to0/16 0/16to0/17 0/17to0/18 0/18to0/19 0/19to0/20 0/20to0/21 0/21to0/22 0/22to0/23 0/23to0/24 0/24to1/24 1/24to2/24 2/24to3/24 3/24to4/24 4/24to5/24 5/24to6/24 6/24to7/24 7/24to7/25"/>
    </vehicle>
    <vehicle id="35" type="vTypeDist" depart="28.00" departLane="best" departPos="random" departSpeed="random">
        <route edges="10/3to10/4 10/4to10/5 10/5to10/6 10/6to10/7 10/7to10/8 10/8to10/9 10/9to10/10 10/10to10/11 10/11to10/12 10/12to10/13 10/13to10/14 10/14to10/15 10/15to10/16 10/16to10/17 10/17to10/18 10/18to10/19 10/19to10/20 10/20to10/21 10/21to9/21 9/21to8/21 8/21to7/21 7/21to6/21 6/21to5/21 5/21to4/21 4/21to3/21 3/21to2/21 2/21to1/21 1/21to0/21 0/21to0/22 0/22to0/23 0/23to0/24 0/24to0/25 0/25to0/24"/>
    </vehicle>
    <vehicle id="36" type="vTypeDist" depart="28.80" departLane="best" departPos="random" departSpeed="random">
        <route edges="2/28to3/28 3/28to3/27 3/27to3/26 3/26to3/25 3/25to3/24 3/24to3/23 3/23to4/23 4/23to4/22 4/22to4/21 4/21to4/20 4/20to4/19 4/19to4/18 4/18to4/17 4/17to4/16 4/16to4/15 4/15to4/14 4/14to4/13 4/13to4/12 4/12to5/12 5/12to5/11"/>
    </vehicle>
    <vehicle id="37" type="vTypeDist" depart="29.60" departLane="best" departPos="random" departSpeed="random">
        <route edges="4/18to4/19 4/19to4/18 4/18to4/17 4/17to4/16 4/16to4/15 4/15to5/15 5/15to6/15 6/15to6/14 6/14to7/14 7/14to8/14 8/14to9/14"/>
    </vehicle>
    <vehicle id="38" type="vTypeDist" depart="30.40" departLane="best" departPos="random" departSpeed="random">
        <route edges="8/16to9/16 9/16to8/16 8/16to7/16 7/16to6/16 6/16to5/16 5/16to4/16 4/16to3/16 3/16to4/16"/>
    </vehicle>
    <vehicle id="39" type="vTypeDist" depart="31.20" departLane="best" departPos="random" departSpeed="random">
        <route edges="8/15to9/15 9/15to9/16 9/16to9/17 9/17to9/18 9/18to9/19 9/19to8/19 8/19to7/19 7/19to6/19 6/19to5/19 5/19to4/19"/>
    </vehicle>
    <vehicle id="40" type="vTypeDist" depart="32.00" departLane="best" departPos="random" departSpeed="random">
        <route edges="right25to10/25 10/25to10/26 10/26to10/27 10/27to10/28 10/28to10/29 10/29to9/29 9/29to8/29 8/29to8/30 8/30to7/30 7/30to6/30 6/30to5/30 5/30totop5"/>
    </vehicle>
    <vehicle id="41" type="vTypeDist" depart="32.80" departLane="best" departPos="random" departSpeed="random">
        <route edges="1/22to2/22 2/22to2/21 2/21to2/20 2/20to2/19 2/19to2/18 2/18to2/17 2/17to2/16 2/16to2/15 2/15to2/14 2/14to2/13 2/13to2/12 2/12to2/11 2/11to2/10 2/10to2/9 2/9to2/8 2/8to2/7 2/7to2/6 2/6to2/5 2/5to3/5"/>
    </vehicle>
    <vehicle id="42" type="vTypeDist" depart="33.60" departLane="best" departPos="random" departSpeed="random">
        <route edges="6/30to5/30 5/30to5/29 5/29to5/28 5/28to5/27 5/27to5/26 5/26to5/25 5/25to4/25 4/25to4/24 4/24to4/23 4/23to4/22 4/22to4/21 4/21to3/21 3/21to2/21 2/21to1/21 1/21to1/22"/>
    </vehicle>
    <vehicle id="43" type="vTypeDist" depart="34.40" departLane="best" departPos="random" departSpeed="random">
        <route edges="9/26to9/27 9/27to9/28 9/28to8/28 8/28to7/28 7/28to6/28 6/28to5/28 5/28to5/27"/>
    </vehicle>
    <vehicle id="44" type="vTypeDist" depart="35.20" departLane="best" departPos="random" departSpeed="random">
        <route edges="3/13to3/12 3/12to3/13 3/13to3/14 3/14to3/15 3/15to3/16 3/16to3/17 3/17to3/18 3/18to3/19 3/19to3/20 3/20to3/21 3/21to3/22 3/22to3/23 3/23to3/24 3/24to3/25 3/25to3/26 3/26to4/26 4/26to3/26"/>
    </vehicle>
    <vehicle id="45" type="vTypeDist" depart="36.00" departLane="best" departPos="random" departSpeed="random">
        <route edges="7/9to7/8 7/8to7/9 7/9to7/10 7/10to7/11 7/11to7/12 7/12to6/12 6/12to5/12 5/12to4/12 4/12to3/12 3/12to3/11"/>
    </vehicle>
    <vehicle id="46" type="vTypeDist" depart="36.80" departLane="best" departPos="random" departSpeed="random">
        <route edges="10/24to10/23 10/23to10/22 10/22to10/21 10/21to10/20 10/20to10/19 10/19to10/18 10/18to10/17 10/17to10/16 10/16to10/15 10/15to10/14 10/14to10/13 10/13to10/12 10/12to10/11 10/11to10/10 10/10to10/9 10/9to10/8 10/8to10/7 10/7to10/6 10/6to10/5 10/5to10/4 10/4to10/3 10/3to10/2"/>
    </vehicle>
    <vehicle id="47" type="vTypeDist" depart="37.60" departLane="best" departPos="random" departSpeed="random">
        <route edges="9/16to8/16 8/16to8/15 8/15to8/14 8/14to8/13 8/13to8/12 8/12to8/11 8/11to7/11 7/11to7/10 7/10to7/9 7/9to7/8 7/8to7/7 7/7to7/6 7/6to7/5 7/5to7/4 7/4to7/3 7/3to6/3 6/3to6/2"/>
    </vehicle>
    <vehicle id="48" type="vTypeDist" depart="38.40" departLane="best" departPos="random" departSpeed="random">
        <route edges="5/13to5/12 5/12to5/11 5/11to5/10 5/10to5/9 5/9to5/8 5/8to5/7 5/7to5/6 5/6to5/5 5/5to5/4 5/4to5/3 5/3to5/2 5/2to5/1 5/1to5/0 5/0to4/0 4/0to3/0 3/0to2/0 2/0to1/0"/>
    </vehicle>
    <vehicle id="49" type="vTypeDist" depart="39.20" departLane="best" departPos="random" departSpeed="random">
        <route edges="0/4to1/4 1/4to1/5 1/5to1/6 1/6to1/7 1/7to1/8 1/8to1/9 1/9to2/9 2/9to2/10 2/10to2/11 2/11to2/12 2/12to2/13 2/13to2/14 2/14to2/15 2/15to2/16 2/16to2/17 2/17to2/18 2/18to2/19 2/19to2/20 2/20to3/20 3/20to4/20 4/20to5/20 5/20to6/20 6/20to7/20 7/20to8/20 8/20to9/20 9/20to10/20 10/20toright20"/>
    </vehicle>
    <vehicle id="50" type="vTypeDist" depart="40.00" departLane="best" departPos="random" departSpeed="random">
        <route edges="2/22to1/22 1/22to1/21 1/21to1/20 1/20to1/19 1/19to1/18 1/18to1/17 1/17to2/17 2/17to2/16 2/16to2/15 2/15to2/14 2/14to2/13 2/13to2/12 2/12to2/11 2/11to2/10 2/10to2/9 2/9to2/8 2/8to2/7 2/7to2/6 2/6to2/5 2/5to2/4 2/4to3/4 3/4to4/4 4/4to5/4 5/4to4/4"/>
    </vehicle>
    <vehicle id="51" type="vTypeDist" depart="40.80" departLane="best" departPos="random" departSpeed="random">
        <route edges="right0to10/0 10/0to10/1 10/1to10/2 10/2to10/3 10/3to10/4 10/4to10/5 10/5to10/6 10/6to10/7 10/7to9/7 9/7to9/8 9/8to9/9 9/9to8/9 8/9to7/9 7/9to6/9 6/9to5/9 5/9to4/9 4/9to3/9 3/9to2/9 2/9to1/9 1/9to0/9 0/9to0/8"/>
    </vehicle>
    <vehicle id="52" type="vTypeDist" depart="41.60" departLane="best" departPos="random" departSpeed="random">
        <route edges="0/30to1/30 1/30to1/29 1/29to1/28 1/28to1/27 1/27to1/26 1/26to1/25 1/25to0/25 0/25to0/24 0/24to0/23 0/23to0/22 0/22to0/21 0/21to0/20 0/20to0/19 0/19to0/18 0/18to0/17 0/17to0/16 0/16to0/15 0/15to0/14 0/14to0/13 0/13to0/12 0/12to0/11 0/11to0/10 0/10to0/9 0/9to0/8 0/8to0/7 0/7to0/6 0/6to0/5 0/5to0/4"/>
    </vehicle>
    <vehicle id="53" type="vTypeDist" depart="42.40" departLane="best" departPos="random" departSpeed="random">
        <route edges="6/23to7/23 7/23to6/23 6/23to5/23 5/23to5/22 5/22to4/22 4/22to3/22 3/22to2/22 2/22to1/22 1/22to0/22 0/22to0/23"/>
    </vehicle>
    <vehicle id="54" type="vTypeDist" depart="43.20" departLane="best" departPos="random" departSpeed="random">
        <route edges="6/14to6/13 6/13to6/14 6/14to6/15 6/15to6/16 6/16to6/17 6/17to6/18 6/18to6/19 6/19to6/20 6/20to6/21 6/21to6/22 6/22to6/23 6/23to6/24 6/24to6/25 6/25to6/26 6/26to6/27 6/27to6/28 6/28to6/29 6/29to5/29 5/29to4/29 4/29to3/29 3/29to2/29"/>
    </vehicle>
    <vehicle id="55" type="vTypeDist" depart="44.00" departLane="best" departPos="random" departSpeed="random">
        <route edges="2/27to2/26 2/26to2/25 2/25to2/24 2/24to2/23 2/23to2/22 2/22to2/21 2/21to2/20 2/20to2/19 2/19to2/18 2/18to2/17 2/17to2/16 2/16to2/15 2/15to2/14 2/14to2/13 2/13to2/12 2/12to2/11 2/11to2/10 2/10to2/9 2/9to2/8 2/8to2/7 2/7to2/6 2/6to2/5 2/5to2/4 2/4to2/3 2/3to2/2 2/2to2/1 2/1to2/0 2/0to3/0 3/0to4/0 4/0to5/0 5/0to6/0 6/0to7/0 7/0to8/0 8/0to7/0"/>
    </vehicle>
    <vehicle id="56" type="vTypeDist" depart="44.80" departLane="best" departPos="random" departSpeed="random">
        <route edges="8/22to9/22 9/22to9/21 9/21to9/20 9/20to9/19 9/19to9/18 9/18to9/17 9/17to10/17 10/17to10/16 10/16to10/15 10/15to10/14 10/14to10/13 10/13to10/12 10/12to10/11 10/11to10/10 10/10to10/9 10/9to10/8 10/8to10/7 10/7to10/6 10/6to10/5 10/5to10/4 10/4to10/3 10/3to10/2 10/2to10/1 10/1to10/0"/>
    </vehicle>
    <vehicle id="57" type="vTypeDist" depart="45.60" departLane="best" departPos="random" departSpeed="random">
        <route edges="left19to0/19 0/19to0/20 0/20to0/21 0/21to0/22 0/22to0/23 0/23to0/24 0/24to0/25 0/25to0/26 0/26to0/27 0/27to0/28 0/28to0/29 0/29to0/30 0/30to1/30 1/30to2/30 2/30to3/30 3/30to4/30 4/30to5/30 5/30to6/30 6/30to6/29"/>
    </vehicle>
    <vehicle id="58" type="vTypeDist" depart="46.40" departLane="best" departPos="random" departSpeed="random">
        <route edges="6/14to6/15 6/15to6/14 6/14to6/13 6/13to6/12 6/12to6/11 6/11to5/11 5/11to4/11 4/11to4/10 4/10to3/10 3/10to2/10"/>
    </vehicle>
    <vehicle id="59" type="vTypeDist" depart="47.20" departLane="best" departPos="random" departSpeed="random">
        <route edges="5/7to5/6 5/6to5/7 5/7to5/8 5/8to5/9 5/9to5/10 5/10to5/11 5/11to5/12 5/12to5/13 5/13to5/14 5/14to5/15 5/15to5/16 5/16to5/17 5/17to5/18 5/18to5/19 5/19to5/20 5/20to5/21 5/21to5/22 5/22to5/23 5/23to5/24 5/24to5/25 5/25to5/26 5/26to6/26 6/26to7/26 7/26to8/26 8/26to9/26 9/26to10/26 10/26to10/27"/>
    </vehicle>
    <vehicle id="60" type="vTypeDist" depart="48.00" departLane="best" departPos="random" departSpeed="random">
        <route edges="6/27to6/28 6/28to6/27 6/27to7/27 7/27to8/27 8/27to9/27 9/27to10/27"/>
    </vehicle>
    <vehicle id="61" type="vTypeDist" depart="48.80" departLane="best" departPos="random" departSpeed="random">
        <route edges="3/28to4/28 4/28to4/27 4/27to4/26 4/26to4/25 4/25to4/24 4/24to4/23 4/23to5/23 5/23to5/22 5/22to5/21 5/21to5/20 5/20to5/19 5/19to5/18 5/18to5/17 5/17to5/16 5/16to5/15"/>
    </vehicle>
    <vehicle id="62" type="vTypeDist" depart="49.60" departLane="best" departPos="random" departSpeed="random">
        <route edges="4/27to5/27 5/27to5/26 5/26to5/25 5/25to5/24 5/24to5/23 5/23to5/22 5/22to6/22 6/22to6/21 6/21to6/20 6/20to6/19 6/19to6/18 6/18to6/17 6/17to6/16 6/16to6/15 6/15to6/14 6/14to6/13 6/13to6/12 6/12to6/11 6/11to6/10 6/10to6/9 6/9to6/8 6/8to6/7 6/7to6/6 6/6to6/5 6/5to6/4 6/4to6/3 6/3to6/2 6/2to7/2 7/2to8/2 8/2to9/2 9/2to10/2 10/2to10/1"/>
    </vehicle>
    <vehicle id="63" type="vTypeDist" depart="50.40" departLane="best" departPos="random" departSpeed="random">
        <route edges="6/9to5/9 5/9to4/9 4/9to3/9 3/9to3/8 3/8to2/8 2/8to1/8 1/8to1/7"/>
    </vehicle>
    <vehicle id="64" type="vTypeDist" depart="51.20" departLane="best" departPos="random" departSpeed="random">
        <route edges="0/29to1/29 1/29to1/28 1/28to1/27 1/27to1/26 1/26to1/25 1/25to1/24 1/24to2/24 2/24to2/23 2/23to2/22 2/22to2/21 2/21to2/20 2/20to2/19 2/19to2/18 2/18to2/17 2/17to2/16 2/16to2/15 2/15to2/14 2/14to2/13 2/13to2/12 2/12to2/11 2/11to2/10 2/10to2/9 2/9to3/9 3/9to4/9 4/9to5/9 5/9to6/9"/>
    </vehicle>
    <vehicle id="65" type="vTypeDist" depart="52.00" departLane="best" departPos="random" departSpeed="random">
        <route edges="9/11to9/10 9/10to9/11 9/11to9/12 9/12to9/13 9/13to9/14 9/14to9/15 9/15to9/16 9/16to9/17 9/17to9/18 9/18to9/19 9/19to9/20 9/20to9/21 9/21to9/22 9/22to9/23 9/23to9/24 9/24to9/25 9/25to9/26 9/26to9/27 9/27to9/28 9/28to9/29 9/29to9/30 9/30to8/30 8/30to7/30 7/30to6/30 6/30to5/30 5/30to6/30"/>
    </vehicle>
    <vehicle id="66" type="vTypeDist" depart="52.80" departLane="best" departPos="random" departSpeed="random">
        <route edges="7/29to7/30 7/30to7/29 7/29to7/28 7/28to7/27 7/27to7/26 7/26to7/25 7/25to7/24 7/24to7/23 7/23to7/22 7/22to7/21 7/21to7/20 7/20to7/19 7/19to7/18 7/18to7/17 7/17to7/16 7/16to7/15 7/15to7/14 7/14to7/13 7/13to7/12 7/12to7/11 7/11to7/10 7/10to7/9 7/9to7/8 7/8to7/7 7/7to7/6 7/6to7/5 7/5to7/4 7/4to7/3 7/3to7/2 7/2to7/1 7/1to7/0 7/0to6/0 6/0to5/0 5/0to4/0 4/0to4/1"/>
    </vehicle>
    <vehicle id="67" type="vTypeDist" depart="53.60" departLane="best" departPos="random" departSpeed="random">
        <route edges="0/7to0/6 0/6to0/7 0/7to0/8 0/8to0/9 0/9to0/10 0/10to0/11 0/11to0/12 0/12to0/13 0/13to1/13 1/13to1/14 1/14to1/15 1/15to2/15 2/15to3/15 3/15to4/15 4/15to5/15 5/15to6/15 6/15to7/15 7/15to8/15"/>
    </vehicle>
    <vehicle id="68" type="vTypeDist" depart="54.40" departLane="best" departPos="random" departSpeed="random">
        <route edges="1/4to0/4 0/4to0/5 0/5to0/6 0/6to0/7 0/7to0/8 0/8to0/9 0/9to1/9 1/9to1/10 1/10to1/11 1/11to1/12 1/12to1/13 1/13to1/14 1/14to1/15 1/15to1/16 1/16to1/17 1/17to1/18 1/18to1/19 1/19to1/20 1/20to1/21 1/21to2/21 2/21to2/20"/>
    </vehicle>
    <vehicle id="69" type="vTypeDist" depart="55.20" departLane="best" departPos="random" departSpeed="random">
        <route edges="0/16to1/16 1/16to1/17 1/17to1/18 1/18to1/19 1/19to1/20 1/20to2/20 2/20to3/20 3/20to4/20 4/20to5/20 5/20to6/20 6/20to7/20 7/20to7/21"/>
    </vehicle>
    <vehicle id="70" type="vTypeDist" depart="56.00" departLane="best" departPos="random" departSpeed="random">
        <route edges="7/17to7/16 7/16to7/15 7/15to7/14 7/14to7/13 7/13to7/12 7/12to7/11 7/11to7/10 7/10to7/9 7/9to7/8 7/8to7/7 7/7to7/6 7/6to7/5 7/5to7/4 7/4to7/3 7/3to7/2 7/2to6/2 6/2to5/2 5/2to4/2 4/2to5/2"/>
    </vehicle>
    <vehicle id="71" type="vTypeDist" depart="56.80" departLane="best" departPos="random" departSpeed="random">
        <route edges="9/13to9/14 9/14to9/13 9/13to9/12 9/12to9/11 9/11to9/10 9/10to9/9 9/9to9/8 9/8to9/7 9/7to9/6 9/6to9/5 9/5to9/4 9/4to9/3 9/3to8/3 8/3to7/3 7/3to6/3 6/3to5/3 5/3to4/3 4/3to3/3 3/3to2/3 2/3to1/3 1/3to0/3 0/3to1/3"/>
    </vehicle>
    <vehicle id="72" type="vTypeDist" depart="57.60" departLane="best" departPos="random" departSpeed="random">
        <route edges="4/28to3/28 3/28to3/27 3/27to3/26 3/26to3/25 3/25to3/24 3/24to3/23 3/23to4/23 4/23to4/22 4/22to5/22 5/22to6/22 6/22to7/22 7/22to8/22 8/22to8/21"/>
    </vehicle>
    <vehicle id="73" type="vTypeDist" depart="58.40" departLane="best" departPos="random" departSpeed="random">
        <route edges="6/0to5/0 5/0to5/1 5/1to5/2 5/2to5/3 5/3to5/4 5/4to5/5 5/5to4/5 4/5to4/6 4/6to4/7 4/7to4/8 4/8to3/8 3/8to2/8 2/8to3/8"/>
    </vehicle>
    <vehicle id="74" type="vTypeDist" depart="59.20" departLane="best" departPos="random" departSpeed="random">
        <route edges="9/9to10/9 10/9to10/10 10/10to10/11 10/11to10/12 10/12to10/13 10/13to10/14 10/14to9/14 9/14to9/15 9/15to9/16 9/16to9/17 9/17to9/18 9/18to9/19 9/19to9/20 9/20to9/21 9/21to9/22 9/22to8/22 8/22to7/22 7/22to6/22 6/22to5/22 5/22to4/22 4/22to3/22 3/22to3/21"/>
    </vehicle>
    <vehicle id="75" type="vTypeDist" depart="60.00" departLane="best" departPos="random" departSpeed="random">
        <route edges="2/1to3/1 3/1to3/2 3/2to3/3 3/3to3/4 3/4to3/5 3/5to3/6 3/6to4/6 4/6to4/7 4/7to4/8 4/8to4/9 4/9to4/10 4/10to4/11 4/11to5/11 5/11to6/11 6/11to7/11 7/11to7/10"/>
    </vehicle>
    <vehicle id="76" type="vTypeDist" depart="60.80" departLane="best" departPos="random" departSpeed="random">
        <route edges="0/17to0/16 0/16to0/17 0/17to0/18 0/18to0/19 0/19to0/20 0/20to0/21 0/21to0/22 0/22to0/23 0/23to0/24 0/24to0/25 0/25to0/26 0/26to0/27 0/27to1/27 1/27to2/27 2/27to3/27 3/27to4/27 4/27to5/27 5/27to6/27 6/27to7/27 7/27to7/26"/>
    </vehicle>
    <vehicle id="77" type="vTypeDist" depart="61.60" departLane="best" departPos="random" departSpeed="random">
        <route edges="6/7to6/8 6/8to6/9 6/9to6/10 6/10to6/11 6/11to6/12 6/12to6/13 6/13to6/14 6/14to6/15 6/15to6/16 6/16to6/17 6/17to6/18 6/18to6/19 6/19to6/20 6/20to6/21 6/21to6/22 6/22to6/23 6/23to6/24 6/24to6/25 6/25to6/26 6/26to5/26 5/26to4/26 4/26to3/26 3/26to2/26 2/26to1/26 1/26to0/26 0/26to0/27"/>
    </vehicle>
    <vehicle id="78" type="vTypeDist" depart="62.40" departLane="best" departPos="random" departSpeed="random">
        <route edges="5/29to4/29 4/29to4/28 4/28to4/27 4/27to4/26 4/26to4/25 4/25to4/24 4/24to3/24 3/24to3/23 3/23to3/22 3/22to3/21 3/21to3/20 3/20to3/19 3/19to3/18 3/18to3/17 3/17to3/16 3/16to3/15 3/15to3/14 3/14to3/13 3/13to3/12 3/12to3/11 3/11to3/10 3/10to3/9 3/9to3/8 3/8to2/8 2/8to1/8 1/8to1/7"/>
    </vehicle>
    <vehicle id="79" type="vTypeDist" depart="63.20" departLane="best" departPos="random" departSpeed="random">
        <route edges="7/17to8/17 8/17to8/18 8/18to8/19 8/19to8/20 8/20to8/21 8/21to7/21 7/21to6/21 6/21to5/21 5/21to4/21 4/21to3/21 3/21to2/21 2/21to2/22"/>
    </vehicle>