<?xml version="1.0" encoding="UTF-8"?>

<!-- generated on Wed Aug 19 10:49:43 2015 by SUMO netgenerate Version 0.21.0
<?xml version="1.0" encoding="UTF-8"?>

<configuration xmlns:xsi="http://www.w3.org/2001/XMLSchema-instance" xsi:noNamespaceSchemaLocation="http://sumo-sim.org/xsd/netgenerateConfiguration.xsd">

    <grid_network>
        <grid value="true"/>
        <grid.number value="5"/>
        <grid.length value="250"/>
    </grid_network>

    <output>
        <output-file value="MyNet.net.xml"/>
    </output>

    <building_defaults>
        <default.lanenumber value="2"/>
    </building_defaults>

</configuration>
-->

<net version="0.13" xmlns:xsi="http://www.w3.org/2001/XMLSchema-instance" xsi:noNamespaceSchemaLocation="http://sumo-sim.org/xsd/net_file.xsd">

    <location netOffset="0.00,0.00" convBoundary="0.00,0.00,1000.00,1000.00" origBoundary="0.00,0.00,1000.00,1000.00" projParameter="!"/>

    <edge id=":0/0_0" function="internal">
        <lane id=":0/0_0_0" index="0" speed="13.90" length="15.89" shape="-4.95,6.55 -4.23,1.52 -2.08,-2.08 1.52,-4.23 6.55,-4.95"/>
        <lane id=":0/0_0_1" index="1" speed="13.90" length="15.89" shape="-1.65,6.55 -1.14,2.96 0.40,0.40 2.96,-1.14 6.55,-1.65"/>
    </edge>
    <edge id=":0/0_2" function="internal">
        <lane id=":0/0_2_0" index="0" speed="13.90" length="2.41" shape="-1.65,6.55 -0.82,5.31 0.00,4.90"/>
    </edge>
    <edge id=":0/0_6" function="internal">
        <lane id=":0/0_6_0" index="0" speed="13.90" length="2.41" shape="0.00,4.90 0.83,5.31 1.65,6.55"/>
    </edge>
    <edge id=":0/0_3" function="internal">
        <lane id=":0/0_3_0" index="0" speed="13.90" length="5.24" shape="6.55,4.95 5.85,5.05 5.35,5.35 5.05,5.85 4.95,6.55"/>
        <lane id=":0/0_3_1" index="1" speed="13.90" length="5.24" shape="6.55,1.65 4.41,1.96 2.88,2.87 1.96,4.41 1.65,6.55"/>
    </edge>
    <edge id=":0/0_5" function="internal">
        <lane id=":0/0_5_0" index="0" speed="13.90" length="2.41" shape="6.55,1.65 5.31,0.83 4.90,0.00"/>
    </edge>
    <edge id=":0/0_7" function="internal">
        <lane id=":0/0_7_0" index="0" speed="13.90" length="2.41" shape="4.90,0.00 5.31,-0.82 6.55,-1.65"/>
    </edge>
    <edge id=":0/1_0" function="internal">
        <lane id=":0/1_0_0" index="0" speed="13.90" length="16.10" shape="-4.95,258.05 -4.95,253.27 -4.95,250.00 -4.95,246.73 -4.95,241.95"/>
        <lane id=":0/1_0_1" index="1" speed="13.90" length="16.10" shape="-1.65,258.05 -1.65,253.27 -1.65,250.00 -1.65,246.73 -1.65,241.95"/>
    </edge>
    <edge id=":0/1_2" function="internal">
        <lane id=":0/1_2_0" index="0" speed="13.90" length="8.84" shape="-1.65,258.05 -1.04,253.81 0.77,250.78 1.65,250.25"/>
    </edge>
    <edge id=":0/1_3" function="internal">
        <lane id=":0/1_3_0" index="0" speed="13.90" length="2.41" shape="-1.65,258.05 -0.83,256.81 -0.00,256.40"/>
    </edge>
    <edge id=":0/1_11" function="internal">
        <lane id=":0/1_11_0" index="0" speed="13.90" length="6.80" shape="1.65,250.25 3.81,248.96 8.05,248.35"/>
    </edge>
    <edge id=":0/1_12" function="internal">
        <lane id=":0/1_12_0" index="0" speed="13.90" length="2.41" shape="-0.00,256.40 0.82,256.81 1.65,258.05"/>
    </edge>
    <edge id=":0/1_4" function="internal">
        <lane id=":0/1_4_0" index="0" speed="13.90" length="5.00" shape="8.05,254.95 6.69,255.14 5.73,255.72 5.14,256.69 4.95,258.05"/>
    </edge>
    <edge id=":0/1_5" function="internal">
        <lane id=":0/1_5_0" index="0" speed="13.90" length="15.64" shape="8.05,251.65 3.81,251.04 0.78,249.23 -1.04,246.19 -1.65,241.95"/>
    </edge>
    <edge id=":0/1_6" function="internal">
        <lane id=":0/1_6_0" index="0" speed="13.90" length="4.82" shape="8.05,251.65 6.81,250.82 6.40,250.00 6.81,249.18 8.05,248.35"/>
    </edge>
    <edge id=":0/1_7" function="internal">
        <lane id=":0/1_7_0" index="0" speed="13.90" length="5.00" shape="4.95,241.95 5.14,243.31 5.72,244.28 6.69,244.86 8.05,245.05"/>
    </edge>
    <edge id=":0/1_8" function="internal">
        <lane id=":0/1_8_0" index="0" speed="13.90" length="16.10" shape="4.95,241.95 4.95,246.73 4.95,250.00 4.95,253.27 4.95,258.05"/>
        <lane id=":0/1_8_1" index="1" speed="13.90" length="16.10" shape="1.65,241.95 1.65,246.73 1.65,250.00 1.65,253.27 1.65,258.05"/>
    </edge>
    <edge id=":0/1_10" function="internal">
        <lane id=":0/1_10_0" index="0" speed="13.90" length="2.41" shape="1.65,241.95 0.83,243.19 0.00,243.60"/>
    </edge>
    <edge id=":0/1_13" function="internal">
        <lane id=":0/1_13_0" index="0" speed="13.90" length="2.41" shape="0.00,243.60 -0.82,243.19 -1.65,241.95"/>
    </edge>
    <edge id=":0/2_0" function="internal">
        <lane id=":0/2_0_0" index="0" speed="13.90" length="16.10" shape="-4.95,508.05 -4.95,503.27 -4.95,500.00 -4.95,496.73 -4.95,491.95"/>
        <lane id=":0/2_0_1" index="1" speed="13.90" length="16.10" shape="-1.65,508.05 -1.65,503.27 -1.65,500.00 -1.65,496.73 -1.65,491.95"/>
    </edge>
    <edge id=":0/2_2" function="internal">
        <lane id=":0/2_2_0" index="0" speed="13.90" length="8.84" shape="-1.65,508.05 -1.04,503.81 0.77,500.77 1.65,500.25"/>
    </edge>
    <edge id=":0/2_3" function="internal">
        <lane id=":0/2_3_0" index="0" speed="13.90" length="2.41" shape="-1.65,508.05 -0.83,506.81 -0.00,506.40"/>
    </edge>
    <edge id=":0/2_11" function="internal">
        <lane id=":0/2_11_0" index="0" speed="13.90" length="6.80" shape="1.65,500.25 3.81,498.96 8.05,498.35"/>
    </edge>
    <edge id=":0/2_12" function="internal">
        <lane id=":0/2_12_0" index="0" speed="13.90" length="2.41" shape="-0.00,506.40 0.82,506.81 1.65,508.05"/>
    </edge>
    <edge id=":0/2_4" function="internal">
        <lane id=":0/2_4_0" index="0" speed="13.90" length="5.00" shape="8.05,504.95 6.69,505.14 5.73,505.72 5.14,506.69 4.95,508.05"/>
    </edge>
    <edge id=":0/2_5" function="internal">
        <lane id=":0/2_5_0" index="0" speed="13.90" length="15.64" shape="8.05,501.65 3.81,501.04 0.77,499.22 -1.04,496.19 -1.65,491.95"/>
    </edge>
    <edge id=":0/2_6" function="internal">
        <lane id=":0/2_6_0" index="0" speed="13.90" length="4.82" shape="8.05,501.65 6.81,500.82 6.40,500.00 6.81,499.18 8.05,498.35"/>
    </edge>
    <edge id=":0/2_7" function="internal">
        <lane id=":0/2_7_0" index="0" speed="13.90" length="5.00" shape="4.95,491.95 5.14,493.31 5.72,494.27 6.69,494.86 8.05,495.05"/>
    </edge>
    <edge id=":0/2_8" function="internal">
        <lane id=":0/2_8_0" index="0" speed="13.90" length="16.10" shape="4.95,491.95 4.95,496.73 4.95,500.00 4.95,503.27 4.95,508.05"/>
        <lane id=":0/2_8_1" index="1" speed="13.90" length="16.10" shape="1.65,491.95 1.65,496.73 1.65,500.00 1.65,503.27 1.65,508.05"/>
    </edge>
    <edge id=":0/2_10" function="internal">
        <lane id=":0/2_10_0" index="0" speed="13.90" length="2.41" shape="1.65,491.95 0.83,493.19 0.00,493.60"/>
    </edge>
    <edge id=":0/2_13" function="internal">
        <lane id=":0/2_13_0" index="0" speed="13.90" length="2.41" shape="0.00,493.60 -0.82,493.19 -1.65,491.95"/>
    </edge>
    <edge id=":0/3_0" function="internal">
        <lane id=":0/3_0_0" index="0" speed="13.90" length="16.10" shape="-4.95,758.05 -4.95,753.27 -4.95,750.00 -4.95,746.73 -4.95,741.95"/>
        <lane id=":0/3_0_1" index="1" speed="13.90" length="16.10" shape="-1.65,758.05 -1.65,753.27 -1.65,750.00 -1.65,746.73 -1.65,741.95"/>
    </edge>
    <edge id=":0/3_2" function="internal">
        <lane id=":0/3_2_0" index="0" speed="13.90" length="8.84" shape="-1.65,758.05 -1.04,753.81 0.77,750.77 1.65,750.25"/>
    </edge>
    <edge id=":0/3_3" function="internal">
        <lane id=":0/3_3_0" index="0" speed="13.90" length="2.41" shape="-1.65,758.05 -0.83,756.81 -0.00,756.40"/>
    </edge>
    <edge id=":0/3_11" function="internal">
        <lane id=":0/3_11_0" index="0" speed="13.90" length="6.80" shape="1.65,750.25 3.81,748.96 8.05,748.35"/>
    </edge>
    <edge id=":0/3_12" function="internal">
        <lane id=":0/3_12_0" index="0" speed="13.90" length="2.41" shape="-0.00,756.40 0.82,756.81 1.65,758.05"/>
    </edge>
    <edge id=":0/3_4" function="internal">
        <lane id=":0/3_4_0" index="0" speed="13.90" length="5.00" shape="8.05,754.95 6.69,755.14 5.73,755.73 5.14,756.69 4.95,758.05"/>
    </edge>
    <edge id=":0/3_5" function="internal">
        <lane id=":0/3_5_0" index="0" speed="13.90" length="15.64" shape="8.05,751.65 3.81,751.04 0.78,749.22 -1.04,746.19 -1.65,741.95"/>
    </edge>
    <edge id=":0/3_6" function="internal">
        <lane id=":0/3_6_0" index="0" speed="13.90" length="4.82" shape="8.05,751.65 6.81,750.82 6.40,750.00 6.81,749.17 8.05,748.35"/>
    </edge>
    <edge id=":0/3_7" function="internal">
        <lane id=":0/3_7_0" index="0" speed="13.90" length="5.00" shape="4.95,741.95 5.14,743.31 5.72,744.27 6.69,744.86 8.05,745.05"/>
    </edge>
    <edge id=":0/3_8" function="internal">
        <lane id=":0/3_8_0" index="0" speed="13.90" length="16.10" shape="4.95,741.95 4.95,746.73 4.95,750.00 4.95,753.27 4.95,758.05"/>
        <lane id=":0/3_8_1" index="1" speed="13.90" length="16.10" shape="1.65,741.95 1.65,746.73 1.65,750.00 1.65,753.27 1.65,758.05"/>
    </edge>
    <edge id=":0/3_10" function="internal">
        <lane id=":0/3_10_0" index="0" speed="13.90" length="2.41" shape="1.65,741.95 0.83,743.19 0.00,743.60"/>
    </edge>
    <edge id=":0/3_13" function="internal">
        <lane id=":0/3_13_0" index="0" speed="13.90" length="2.41" shape="0.00,743.60 -0.82,743.19 -1.65,741.95"/>
    </edge>
    <edge id=":0/4_0" function="internal">
        <lane id=":0/4_0_0" index="0" speed="13.90" length="15.89" shape="6.55,1004.95 1.52,1004.23 -2.07,1002.08 -4.23,998.48 -4.95,993.45"/>
        <lane id=":0/4_0_1" index="1" speed="13.90" length="15.89" shape="6.55,1001.65 2.96,1001.14 0.40,999.60 -1.14,997.04 -1.65,993.45"/>
    </edge>
    <edge id=":0/4_2" function="internal">
        <lane id=":0/4_2_0" index="0" speed="13.90" length="2.41" shape="6.55,1001.65 5.31,1000.83 4.90,1000.00"/>
    </edge>
    <edge id=":0/4_6" function="internal">
        <lane id=":0/4_6_0" index="0" speed="13.90" length="2.41" shape="4.90,1000.00 5.31,999.17 6.55,998.35"/>
    </edge>
    <edge id=":0/4_3" function="internal">
        <lane id=":0/4_3_0" index="0" speed="13.90" length="5.24" shape="4.95,993.45 5.05,994.15 5.35,994.65 5.85,994.95 6.55,995.05"/>
        <lane id=":0/4_3_1" index="1" speed="13.90" length="5.24" shape="1.65,993.45 1.96,995.59 2.87,997.12 4.41,998.04 6.55,998.35"/>
    </edge>
    <edge id=":0/4_5" function="internal">
        <lane id=":0/4_5_0" index="0" speed="13.90" length="2.41" shape="1.65,993.45 0.83,994.69 0.00,995.10"/>
    </edge>
    <edge id=":0/4_7" function="internal">
        <lane id=":0/4_7_0" index="0" speed="13.90" length="2.41" shape="0.00,995.10 -0.82,994.69 -1.65,993.45"/>
    </edge>
    <edge id=":1/0_0" function="internal">
        <lane id=":1/0_0_0" index="0" speed="13.90" length="5.00" shape="245.05,8.05 244.86,6.69 244.28,5.73 243.31,5.14 241.95,4.95"/>
    </edge>
    <edge id=":1/0_1" function="internal">
        <lane id=":1/0_1_0" index="0" speed="13.90" length="15.64" shape="248.35,8.05 248.96,3.81 250.77,0.77 253.81,-1.04 258.05,-1.65"/>
    </edge>
    <edge id=":1/0_2" function="internal">
        <lane id=":1/0_2_0" index="0" speed="13.90" length="4.82" shape="248.35,8.05 249.18,6.81 250.00,6.40 250.82,6.81 251.65,8.05"/>
    </edge>
    <edge id=":1/0_3" function="internal">
        <lane id=":1/0_3_0" index="0" speed="13.90" length="5.00" shape="258.05,4.95 256.69,5.14 255.73,5.72 255.14,6.69 254.95,8.05"/>
    </edge>
    <edge id=":1/0_4" function="internal">
        <lane id=":1/0_4_0" index="0" speed="13.90" length="16.10" shape="258.05,4.95 253.27,4.95 250.00,4.95 246.73,4.95 241.95,4.95"/>
        <lane id=":1/0_4_1" index="1" speed="13.90" length="16.10" shape="258.05,1.65 253.27,1.65 250.00,1.65 246.73,1.65 241.95,1.65"/>
    </edge>
    <edge id=":1/0_6" function="internal">
        <lane id=":1/0_6_0" index="0" speed="13.90" length="2.41" shape="258.05,1.65 256.81,0.83 256.40,0.00"/>
    </edge>
    <edge id=":1/0_11" function="internal">
        <lane id=":1/0_11_0" index="0" speed="13.90" length="2.41" shape="256.40,0.00 256.81,-0.82 258.05,-1.65"/>
    </edge>
    <edge id=":1/0_7" function="internal">
        <lane id=":1/0_7_0" index="0" speed="13.90" length="16.10" shape="241.95,-4.95 246.73,-4.95 250.00,-4.95 253.27,-4.95 258.05,-4.95"/>
        <lane id=":1/0_7_1" index="1" speed="13.90" length="16.10" shape="241.95,-1.65 246.73,-1.65 250.00,-1.65 253.27,-1.65 258.05,-1.65"/>
    </edge>
    <edge id=":1/0_9" function="internal">
        <lane id=":1/0_9_0" index="0" speed="13.90" length="8.84" shape="241.95,-1.65 246.19,-1.04 249.22,0.77 249.75,1.65"/>
    </edge>
    <edge id=":1/0_10" function="internal">
        <lane id=":1/0_10_0" index="0" speed="13.90" length="2.41" shape="241.95,-1.65 243.19,-0.83 243.60,-0.00"/>
    </edge>
    <edge id=":1/0_12" function="internal">
        <lane id=":1/0_12_0" index="0" speed="13.90" length="6.80" shape="249.75,1.65 251.04,3.81 251.65,8.05"/>
    </edge>
    <edge id=":1/0_13" function="internal">
        <lane id=":1/0_13_0" index="0" speed="13.90" length="2.41" shape="243.60,-0.00 243.19,0.82 241.95,1.65"/>
    </edge>
    <edge id=":1/1_0" function="internal">
        <lane id=":1/1_0_0" index="0" speed="13.90" length="5.00" shape="245.05,258.05 244.86,256.69 244.28,255.73 243.31,255.14 241.95,254.95"/>
    </edge>
    <edge id=":1/1_1" function="internal">
        <lane id=":1/1_1_0" index="0" speed="13.90" length="16.10" shape="245.05,258.05 245.05,253.27 245.05,250.00 245.05,246.73 245.05,241.95"/>
        <lane id=":1/1_1_1" index="1" speed="13.90" length="16.10" shape="248.35,258.05 248.35,253.27 248.35,250.00 248.35,246.73 248.35,241.95"/>
    </edge>
    <edge id=":1/1_3" function="internal">
        <lane id=":1/1_3_0" index="0" speed="13.90" length="8.84" shape="248.35,258.05 248.96,253.81 250.77,250.78 251.65,250.25"/>
    </edge>
    <edge id=":1/1_4" function="internal">
        <lane id=":1/1_4_0" index="0" speed="13.90" length="2.41" shape="248.35,258.05 249.18,256.81 250.00,256.40"/>
    </edge>
    <edge id=":1/1_18" function="internal">
        <lane id=":1/1_18_0" index="0" speed="13.90" length="6.80" shape="251.65,250.25 253.81,248.96 258.05,248.35"/>
    </edge>
    <edge id=":1/1_19" function="internal">
        <lane id=":1/1_19_0" index="0" speed="13.90" length="2.41" shape="250.00,256.40 250.82,256.81 251.65,258.05"/>
    </edge>
    <edge id=":1/1_5" function="internal">
        <lane id=":1/1_5_0" index="0" speed="13.90" length="5.00" shape="258.05,254.95 256.69,255.14 255.73,255.72 255.14,256.69 254.95,258.05"/>
    </edge>
    <edge id=":1/1_6" function="internal">
        <lane id=":1/1_6_0" index="0" speed="13.90" length="16.10" shape="258.05,251.65 253.27,251.65 250.00,251.65 246.73,251.65 241.95,251.65"/>
    </edge>
    <edge id=":1/1_7" function="internal">
        <lane id=":1/1_7_0" index="0" speed="13.90" length="15.64" shape="258.05,251.65 253.81,251.04 250.78,249.23 248.96,246.19 248.35,241.95"/>
    </edge>
    <edge id=":1/1_8" function="internal">
        <lane id=":1/1_8_0" index="0" speed="13.90" length="4.82" shape="258.05,251.65 256.81,250.82 256.40,250.00 256.81,249.18 258.05,248.35"/>
    </edge>
    <edge id=":1/1_9" function="internal">
        <lane id=":1/1_9_0" index="0" speed="13.90" length="5.00" shape="254.95,241.95 255.14,243.31 255.72,244.27 256.69,244.86 258.05,245.05"/>
    </edge>
    <edge id=":1/1_10" function="internal">
        <lane id=":1/1_10_0" index="0" speed="13.90" length="16.10" shape="254.95,241.95 254.95,246.73 254.95,250.00 254.95,253.27 254.95,258.05"/>
        <lane id=":1/1_10_1" index="1" speed="13.90" length="16.10" shape="251.65,241.95 251.65,246.73 251.65,250.00 251.65,253.27 251.65,258.05"/>
    </edge>
    <edge id=":1/1_12" function="internal">
        <lane id=":1/1_12_0" index="0" speed="13.90" length="8.84" shape="251.65,241.95 251.04,246.19 249.23,249.23 248.35,249.75"/>
    </edge>
    <edge id=":1/1_13" function="internal">
        <lane id=":1/1_13_0" index="0" speed="13.90" length="2.41" shape="251.65,241.95 250.82,243.19 250.00,243.60"/>
    </edge>
    <edge id=":1/1_20" function="internal">
        <lane id=":1/1_20_0" index="0" speed="13.90" length="6.80" shape="248.35,249.75 246.19,251.04 241.95,251.65"/>
    </edge>
    <edge id=":1/1_21" function="internal">
        <lane id=":1/1_21_0" index="0" speed="13.90" length="2.41" shape="250.00,243.60 249.18,243.19 248.35,241.95"/>
    </edge>
    <edge id=":1/1_14" function="internal">
        <lane id=":1/1_14_0" index="0" speed="13.90" length="5.00" shape="241.95,245.05 243.31,244.86 244.28,244.28 244.86,243.31 245.05,241.95"/>
    </edge>
    <edge id=":1/1_15" function="internal">
        <lane id=":1/1_15_0" index="0" speed="13.90" length="16.10" shape="241.95,248.35 246.73,248.35 250.00,248.35 253.27,248.35 258.05,248.35"/>
    </edge>
    <edge id=":1/1_16" function="internal">
        <lane id=":1/1_16_0" index="0" speed="13.90" length="15.64" shape="241.95,248.35 246.19,248.96 249.23,250.77 251.04,253.81 251.65,258.05"/>
    </edge>
    <edge id=":1/1_17" function="internal">
        <lane id=":1/1_17_0" index="0" speed="13.90" length="4.82" shape="241.95,248.35 243.19,249.18 243.60,250.00 243.19,250.82 241.95,251.65"/>
    </edge>
    <edge id=":1/2_0" function="internal">
        <lane id=":1/2_0_0" index="0" speed="13.90" length="5.00" shape="245.05,508.05 244.86,506.69 244.28,505.73 243.31,505.14 241.95,504.95"/>
    </edge>
    <edge id=":1/2_1" function="internal">
        <lane id=":1/2_1_0" index="0" speed="13.90" length="16.10" shape="245.05,508.05 245.05,503.27 245.05,500.00 245.05,496.73 245.05,491.95"/>
        <lane id=":1/2_1_1" index="1" speed="13.90" length="16.10" shape="248.35,508.05 248.35,503.27 248.35,500.00 248.35,496.73 248.35,491.95"/>
    </edge>
    <edge id=":1/2_3" function="internal">
        <lane id=":1/2_3_0" index="0" speed="13.90" length="8.84" shape="248.35,508.05 248.96,503.81 250.77,500.77 251.65,500.25"/>
    </edge>
    <edge id=":1/2_4" function="internal">
        <lane id=":1/2_4_0" index="0" speed="13.90" length="2.41" shape="248.35,508.05 249.18,506.81 250.00,506.40"/>
    </edge>
    <edge id=":1/2_18" function="internal">
        <lane id=":1/2_18_0" index="0" speed="13.90" length="6.80" shape="251.65,500.25 253.81,498.96 258.05,498.35"/>
    </edge>
    <edge id=":1/2_19" function="internal">
        <lane id=":1/2_19_0" index="0" speed="13.90" length="2.41" shape="250.00,506.40 250.82,506.81 251.65,508.05"/>
    </edge>
    <edge id=":1/2_5" function="internal">
        <lane id=":1/2_5_0" index="0" speed="13.90" length="5.00" shape="258.05,504.95 256.69,505.14 255.72,505.72 255.14,506.69 254.95,508.05"/>
    </edge>
    <edge id=":1/2_6" function="internal">
        <lane id=":1/2_6_0" index="0" speed="13.90" length="16.10" shape="258.05,501.65 253.27,501.65 250.00,501.65 246.73,501.65 241.95,501.65"/>
    </edge>
    <edge id=":1/2_7" function="internal">
        <lane id=":1/2_7_0" index="0" speed="13.90" length="15.64" shape="258.05,501.65 253.81,501.04 250.78,499.22 248.96,496.19 248.35,491.95"/>
    </edge>
    <edge id=":1/2_8" function="internal">
        <lane id=":1/2_8_0" index="0" speed="13.90" length="4.82" shape="258.05,501.65 256.81,500.82 256.40,500.00 256.81,499.18 258.05,498.35"/>
    </edge>
    <edge id=":1/2_9" function="internal">
        <lane id=":1/2_9_0" index="0" speed="13.90" length="5.00" shape="254.95,491.95 255.14,493.31 255.72,494.27 256.69,494.86 258.05,495.05"/>
    </edge>
    <edge id=":1/2_10" function="internal">
        <lane id=":1/2_10_0" index="0" speed="13.90" length="16.10" shape="254.95,491.95 254.95,496.73 254.95,500.00 254.95,503.27 254.95,508.05"/>
        <lane id=":1/2_10_1" index="1" speed="13.90" length="16.10" shape="251.65,491.95 251.65,496.73 251.65,500.00 251.65,503.27 251.65,508.05"/>
    </edge>
    <edge id=":1/2_12" function="internal">
        <lane id=":1/2_12_0" index="0" speed="13.90" length="8.84" shape="251.65,491.95 251.04,496.19 249.23,499.23 248.35,499.75"/>
    </edge>
    <edge id=":1/2_13" function="internal">
        <lane id=":1/2_13_0" index="0" speed="13.90" length="2.41" shape="251.65,491.95 250.82,493.19 250.00,493.60"/>
    </edge>
    <edge id=":1/2_20" function="internal">
        <lane id=":1/2_20_0" index="0" speed="13.90" length="6.80" shape="248.35,499.75 246.19,501.04 241.95,501.65"/>
    </edge>
    <edge id=":1/2_21" function="internal">
        <lane id=":1/2_21_0" index="0" speed="13.90" length="2.41" shape="250.00,493.60 249.18,493.19 248.35,491.95"/>
    </edge>
    <edge id=":1/2_14" function="internal">
        <lane id=":1/2_14_0" index="0" speed="13.90" length="5.00" shape="241.95,495.05 243.31,494.86 244.28,494.28 244.86,493.31 245.05,491.95"/>
    </edge>
    <edge id=":1/2_15" function="internal">
        <lane id=":1/2_15_0" index="0" speed="13.90" length="16.10" shape="241.95,498.35 246.73,498.35 250.00,498.35 253.27,498.35 258.05,498.35"/>
    </edge>
    <edge id=":1/2_16" function="internal">
        <lane id=":1/2_16_0" index="0" speed="13.90" length="15.64" shape="241.95,498.35 246.19,498.96 249.22,500.78 251.04,503.81 251.65,508.05"/>
    </edge>
    <edge id=":1/2_17" function="internal">
        <lane id=":1/2_17_0" index="0" speed="13.90" length="4.82" shape="241.95,498.35 243.19,499.18 243.60,500.00 243.19,500.82 241.95,501.65"/>
    </edge>
    <edge id=":1/3_0" function="internal">
        <lane id=":1/3_0_0" index="0" speed="13.90" length="5.00" shape="245.05,758.05 244.86,756.69 244.28,755.73 243.31,755.14 241.95,754.95"/>
    </edge>
    <edge id=":1/3_1" function="internal">
        <lane id=":1/3_1_0" index="0" speed="13.90" length="16.10" shape="245.05,758.05 245.05,753.27 245.05,750.00 245.05,746.73 245.05,741.95"/>
        <lane id=":1/3_1_1" index="1" speed="13.90" length="16.10" shape="248.35,758.05 248.35,753.27 248.35,750.00 248.35,746.73 248.35,741.95"/>
    </edge>
    <edge id=":1/3_3" function="internal">
        <lane id=":1/3_3_0" index="0" speed="13.90" length="8.84" shape="248.35,758.05 248.96,753.81 250.77,750.77 251.65,750.25"/>
    </edge>
    <edge id=":1/3_4" function="internal">
        <lane id=":1/3_4_0" index="0" speed="13.90" length="2.41" shape="248.35,758.05 249.18,756.81 250.00,756.40"/>
    </edge>
    <edge id=":1/3_18" function="internal">
        <lane id=":1/3_18_0" index="0" speed="13.90" length="6.80" shape="251.65,750.25 253.81,748.96 258.05,748.35"/>
    </edge>
    <edge id=":1/3_19" function="internal">
        <lane id=":1/3_19_0" index="0" speed="13.90" length="2.41" shape="250.00,756.40 250.82,756.81 251.65,758.05"/>
    </edge>
    <edge id=":1/3_5" function="internal">
        <lane id=":1/3_5_0" index="0" speed="13.90" length="5.00" shape="258.05,754.95 256.69,755.14 255.73,755.73 255.14,756.69 254.95,758.05"/>
    </edge>
    <edge id=":1/3_6" function="internal">
        <lane id=":1/3_6_0" index="0" speed="13.90" length="16.10" shape="258.05,751.65 253.27,751.65 250.00,751.65 246.73,751.65 241.95,751.65"/>
    </edge>
    <edge id=":1/3_7" function="internal">
        <lane id=":1/3_7_0" index="0" speed="13.90" length="15.64" shape="258.05,751.65 253.81,751.04 250.78,749.22 248.96,746.19 248.35,741.95"/>
    </edge>
    <edge id=":1/3_8" function="internal">
        <lane id=":1/3_8_0" index="0" speed="13.90" length="4.82" shape="258.05,751.65 256.81,750.82 256.40,750.00 256.81,749.17 258.05,748.35"/>
    </edge>
    <edge id=":1/3_9" function="internal">
        <lane id=":1/3_9_0" index="0" speed="13.90" length="5.00" shape="254.95,741.95 255.14,743.31 255.72,744.27 256.69,744.86 258.05,745.05"/>
    </edge>
    <edge id=":1/3_10" function="internal">
        <lane id=":1/3_10_0" index="0" speed="13.90" length="16.10" shape="254.95,741.95 254.95,746.73 254.95,750.00 254.95,753.27 254.95,758.05"/>
        <lane id=":1/3_10_1" index="1" speed="13.90" length="16.10" shape="251.65,741.95 251.65,746.73 251.65,750.00 251.65,753.27 251.65,758.05"/>
    </edge>
    <edge id=":1/3_12" function="internal">
        <lane id=":1/3_12_0" index="0" speed="13.90" length="8.84" shape="251.65,741.95 251.04,746.19 249.23,749.23 248.35,749.75"/>
    </edge>
    <edge id=":1/3_13" function="internal">
        <lane id=":1/3_13_0" index="0" speed="13.90" length="2.41" shape="251.65,741.95 250.82,743.19 250.00,743.60"/>
    </edge>
    <edge id=":1/3_20" function="internal">
        <lane id=":1/3_20_0" index="0" speed="13.90" length="6.80" shape="248.35,749.75 246.19,751.04 241.95,751.65"/>
    </edge>
    <edge id=":1/3_21" function="internal">
        <lane id=":1/3_21_0" index="0" speed="13.90" length="2.41" shape="250.00,743.60 249.18,743.19 248.35,741.95"/>
    </edge>
    <edge id=":1/3_14" function="internal">
        <lane id=":1/3_14_0" index="0" speed="13.90" length="5.00" shape="241.95,745.05 243.31,744.86 244.28,744.27 244.86,743.31 245.05,741.95"/>
    </edge>
    <edge id=":1/3_15" function="internal">
        <lane id=":1/3_15_0" index="0" speed="13.90" length="16.10" shape="241.95,748.35 246.73,748.35 250.00,748.35 253.27,748.35 258.05,748.35"/>
    </edge>
    <edge id=":1/3_16" function="internal">
        <lane id=":1/3_16_0" index="0" speed="13.90" length="15.64" shape="241.95,748.35 246.19,748.96 249.22,750.78 251.04,753.81 251.65,758.05"/>
    </edge>
    <edge id=":1/3_17" function="internal">
        <lane id=":1/3_17_0" index="0" speed="13.90" length="4.82" shape="241.95,748.35 243.19,749.18 243.60,750.00 243.19,750.83 241.95,751.65"/>
    </edge>
    <edge id=":1/4_0" function="internal">
        <lane id=":1/4_0_0" index="0" speed="13.90" length="16.10" shape="258.05,1004.95 253.27,1004.95 250.00,1004.95 246.73,1004.95 241.95,1004.95"/>
        <lane id=":1/4_0_1" index="1" speed="13.90" length="16.10" shape="258.05,1001.65 253.27,1001.65 250.00,1001.65 246.73,1001.65 241.95,1001.65"/>
    </edge>
    <edge id=":1/4_2" function="internal">
        <lane id=":1/4_2_0" index="0" speed="13.90" length="8.84" shape="258.05,1001.65 253.81,1001.04 250.78,999.22 250.25,998.35"/>
    </edge>
    <edge id=":1/4_3" function="internal">
        <lane id=":1/4_3_0" index="0" speed="13.90" length="2.41" shape="258.05,1001.65 256.81,1000.83 256.40,1000.00"/>
    </edge>
    <edge id=":1/4_11" function="internal">
        <lane id=":1/4_11_0" index="0" speed="13.90" length="6.80" shape="250.25,998.35 248.96,996.19 248.35,991.95"/>
    </edge>
    <edge id=":1/4_12" function="internal">
        <lane id=":1/4_12_0" index="0" speed="13.90" length="2.41" shape="256.40,1000.00 256.81,999.17 258.05,998.35"/>
    </edge>
    <edge id=":1/4_4" function="internal">
        <lane id=":1/4_4_0" index="0" speed="13.90" length="5.00" shape="254.95,991.95 255.14,993.31 255.72,994.27 256.69,994.86 258.05,995.05"/>
    </edge>
    <edge id=":1/4_5" function="internal">
        <lane id=":1/4_5_0" index="0" speed="13.90" length="15.64" shape="251.65,991.95 251.04,996.19 249.23,999.23 246.19,1001.04 241.95,1001.65"/>
    </edge>
    <edge id=":1/4_6" function="internal">
        <lane id=":1/4_6_0" index="0" speed="13.90" length="4.82" shape="251.65,991.95 250.82,993.19 250.00,993.60 249.18,993.19 248.35,991.95"/>
    </edge>
    <edge id=":1/4_7" function="internal">
        <lane id=":1/4_7_0" index="0" speed="13.90" length="5.00" shape="241.95,995.05 243.31,994.86 244.28,994.27 244.86,993.31 245.05,991.95"/>
    </edge>
    <edge id=":1/4_8" function="internal">
        <lane id=":1/4_8_0" index="0" speed="13.90" length="16.10" shape="241.95,995.05 246.73,995.05 250.00,995.05 253.27,995.05 258.05,995.05"/>
        <lane id=":1/4_8_1" index="1" speed="13.90" length="16.10" shape="241.95,998.35 246.73,998.35 250.00,998.35 253.27,998.35 258.05,998.35"/>
    </edge>
    <edge id=":1/4_10" function="internal">
        <lane id=":1/4_10_0" index="0" speed="13.90" length="2.41" shape="241.95,998.35 243.19,999.17 243.60,1000.00"/>
    </edge>
    <edge id=":1/4_13" function="internal">
        <lane id=":1/4_13_0" index="0" speed="13.90" length="2.41" shape="243.60,1000.00 243.19,1000.83 241.95,1001.65"/>
    </edge>
    <edge id=":2/0_0" function="internal">
        <lane id=":2/0_0_0" index="0" speed="13.90" length="5.00" shape="495.05,8.05 494.86,6.69 494.28,5.72 493.31,5.14 491.95,4.95"/>
    </edge>
    <edge id=":2/0_1" function="internal">
        <lane id=":2/0_1_0" index="0" speed="13.90" length="15.64" shape="498.35,8.05 498.96,3.81 500.78,0.78 503.81,-1.04 508.05,-1.65"/>
    </edge>
    <edge id=":2/0_2" function="internal">
        <lane id=":2/0_2_0" index="0" speed="13.90" length="4.82" shape="498.35,8.05 499.18,6.81 500.00,6.40 500.82,6.81 501.65,8.05"/>
    </edge>
    <edge id=":2/0_3" function="internal">
        <lane id=":2/0_3_0" index="0" speed="13.90" length="5.00" shape="508.05,4.95 506.69,5.14 505.73,5.72 505.14,6.69 504.95,8.05"/>
    </edge>
    <edge id=":2/0_4" function="internal">
        <lane id=":2/0_4_0" index="0" speed="13.90" length="16.10" shape="508.05,4.95 503.27,4.95 500.00,4.95 496.73,4.95 491.95,4.95"/>
        <lane id=":2/0_4_1" index="1" speed="13.90" length="16.10" shape="508.05,1.65 503.27,1.65 500.00,1.65 496.73,1.65 491.95,1.65"/>
    </edge>
    <edge id=":2/0_6" function="internal">
        <lane id=":2/0_6_0" index="0" speed="13.90" length="2.41" shape="508.05,1.65 506.81,0.83 506.40,0.00"/>
    </edge>
    <edge id=":2/0_11" function="internal">
        <lane id=":2/0_11_0" index="0" speed="13.90" length="2.41" shape="506.40,0.00 506.81,-0.82 508.05,-1.65"/>
    </edge>
    <edge id=":2/0_7" function="internal">