<routes>
	<vType id="Car" maxSpeed="14.0"/>
	<route id="route0" edges="4/3to4/2 4/2to3/2 3/2to2/2 2/2to1/2 1/2to1/1 1/1to1/0"/>
	<route id="route1" edges="0/0to1/0 1/0to1/1 1/1to1/2 1/2to1/3 1/3to1/4 1/4to2/4 2/4to3/4 3/4to3/3"/>
	<route id="route2" edges="0/3to0/4 0/4to0/3 0/3to0/2 0/2to0/1 0/1to1/1 1/1to1/0 1/0to2/0 2/0to3/0 3/0to4/0"/>
	<route id="route3" edges="0/4to0/3 0/3to1/3 1/3to1/4 1/4to2/4 2/4to3/4 3/4to4/4 4/4to4/3"/>
	<route id="route4" edges="0/1to0/0 0/0to0/1 0/1to0/2 0/2to0/3 0/3to1/3 1/3to2/3 2/3to3/3 3/3to3/4"/>
	<route id="route5" edges="2/0to3/0 3/0to2/0 2/0to2/1 2/1to2/2 2/2to2/3 2/3to2/4"/>
	<route id="route6" edges="3/0to3/1 3/1to2/1 2/1to1/1 1/1to0/1 0/1to0/2 0/2to0/3"/>
	<route id="route7" edges="3/4to4/4 4/4to3/4 3/4to2/4 2/4to1/4 1/4to1/3 1/3to0/3 0/3to0/2 0/2to0/1 0/1to0/0 0/0to0/1"/>
	<route id="route8" edges="1/0to1/1 1/1to1/2 1/2to1/3 1/3to1/4 1/4to2/4"/>
	<route id="route9" edges="2/0to1/0 1/0to1/1 1/1to1/2 1/2to1/3 1/3to2/3 2/3to2/4"/>
	<route id="route10" edges="4/1to3/1 3/1to2/1 2/1to1/1 1/1to0/1 0/1to0/0 0/0to0/1"/>
	<route id="route11" edges="4/2to3/2 3/2to2/2 2/2to1/2 1/2to0/2 0/2to0/3 0/3to0/4"/>
	<route id="route12" edges="4/3to4/4 4/4to3/4 3/4to2/4 2/4to1/4 1/4to0/4"/>
	<route id="route13" edges="1/3to1/4 1/4to1/3 1/3to1/2 1/2to1/1 1/1to2/1 2/1to3/1 3/1to4/1 4/1to4/0"/>
	<route id="route14" edges="3/4to2/4 2/4to2/3 2/3to2/2 2/2to2/1 2/1to2/0 2/0to3/0 3/0to2/0"/>
	<route id="route15" edges="4/2to4/3 4/3to3/3 3/3to2/3 2/3to1/3 1/3to0/3 0/3to0/2 0/2to0/3"/>
	<route id="route16" edges="1/0to0/0 0/0to0/1 0/1to0/2 0/2to0/3 0/3to1/3 1/3to1/4 1/4to0/4"/>
	<route id="route17" edges="3/4to4/4 4/4to3/4 3/4to2/4 2/4to1/4 1/4to1/3 1/3to0/3 0/3to0/2 0/2to0/1 0/1to0/0 0/0to0/1"/>
	<route id="route18" edges="2/4to3/4 3/4to2/4 2/4to2/3 2/3to2/2 2/2to2/1 2/1to2/0"/>
	<route id="route19" edges="0/1to0/0 0/0to0/1 0/1to0/2 0/2to1/2 1/2to2/2 2/2to3/2 3/2to4/2 4/2to4/3"/>
	<route id="route20" edges="4/4to3/4 3/4to3/3 3/3to3/2 3/2to3/1 3/1to3/0 3/0to4/0 4/0to3/0"/>
	<route id="route21" edges="0/2to0/3 0/3to0/2 0/2to0/1 0/1to1/1 1/1to1/0 1/0to2/0 2/0to3/0 3/0to4/0 4/0to4/1"/>
	<route id="route22" edges="4/3to4/4 4/4to3/4 3/4to2/4 2/4to1/4 1/4to1/3 1/3to0/3 0/3to0/2 0/2to0/3"/>
	<route id="route23" edges="0/3to0/2 0/2to0/1 0/1to1/1 1/1to1/0 1/0to2/0 2/0to3/0 3/0to4/0"/>
	<route id="route24" edges="2/0to1/0 1/0to1/1 1/1to1/2 1/2to1/3 1/3to1/4 1/4to2/4 2/4to3/4 3/4to2/4"/>
	<route id="route25" edges="0/4to0/3 0/3to0/2 0/2to1/2 1/2to2/2 2/2to3/2 3/2to4/2 4/2to4/3"/>
	<route id="route26" edges="3/0to4/0 4/0to3/0 3/0to2/0 2/0to2/1 2/1to2/2 2/2to2/3 2/3to2/4"/>
	<route id="route27" edges="4/2to4/3 4/3to3/3 3/3to2/3 2/3to1/3 1/3to1/2 1/2to0/2"/>
	<route id="route28" edges="1/1to0/1 0/1to0/2 0/2to0/3 0/3to1/3 1/3to1/4 1/4to2/4 2/4to3/4 3/4to4/4"/>
	<route id="route29" edges="1/4to1/3 1/3to1/2 1/2to1/1 1/1to2/1 2/1to2/0"/>
	<route id="route30" edges="4/2to3/2 3/2to2/2 2/2to1/2 1/2to0/2 0/2to0/1 0/1to0/2"/>
	<route id="route31" edges="4/1to3/1 3/1to2/1 2/1to1/1 1/1to0/1 0/1to0/0 0/0to0/1"/>
	<route id="route32" edges="4/1to4/0 4/0to3/0 3/0to2/0 2/0to1/0 1/0to1/1 1/1to0/1 0/1to0/2 0/2to0/3 0/3to0/4 0/4to0/3"/>
	<route id="route33" edges="4/2to3/2 3/2to2/2 2/2to1/2 1/2to1/3 1/3to1/4 1/4to0/4"/>
	<route id="route34" edges="0/1to0/2 0/2to0/1 0/1to1/1 1/1to2/1 2/1to3/1 3/1to4/1 4/1to4/2"/>
	<route id="route35" edges="0/1to0/2 0/2to1/2 1/2to2/2 2/2to3/2 3/2to4/2 4/2to4/1"/>
	<route id="route36" edges="4/4to4/3 4/3to3/3 3/3to2/3 2/3to1/3 1/3to1/2 1/2to1/1 1/1to1/0"/>
	<route id="route37" edges="0/3to1/3 1/3to1/4 1/4to2/4 2/4to3/4 3/4to4/4 4/4to4/3"/>
	<route id="route38" edges="3/0to2/0 2/0to1/0 1/0to1/1 1/1to1/2 1/2to1/3 1/3to1/4 1/4to2/4"/>
	<route id="route39" edges="3/4to4/4 4/4to3/4 3/4to2/4 2/4to1/4 1/4to1/3 1/3to0/3 0/3to0/2 0/2to0/1"/>
	<route id="route40" edges="4/3to4/2 4/2to3/2 3/2to2/2 2/2to1/2 1/2to0/2 0/2to0/1 0/1to0/0"/>
	<route id="route41" edges="0/1to1/1 1/1to1/2 1/2to1/3 1/3to2/3 2/3to3/3 3/3to4/3 4/3to4/4"/>
	<route id="route42" edges="1/0to2/0 2/0to2/1 2/1to2/2 2/2to2/3 2/3to2/4 2/4to3/4"/>
	<route id="route43" edges="3/0to2/0 2/0to2/1 2/1to2/2 2/2to2/3 2/3to2/4 2/4to3/4 3/4to2/4"/>
	<route id="route44" edges="2/0to2/1 2/1to1/1 1/1to0/1 0/1to0/2 0/2to0/3 0/3to0/4 0/4to1/4"/>
	<route id="route45" edges="0/2to1/2 1/2to1/1 1/1to1/0 1/0to2/0 2/0to3/0 3/0to4/0"/>
	<route id="route46" edges="3/4to2/4 2/4to1/4 1/4to1/3 1/3to1/2 1/2to1/1 1/1to1/0 1/0to0/0"/>
	<route id="route47" edges="4/4to3/4 3/4to2/4 2/4to1/4 1/4to1/3 1/3to1/2 1/2to1/1 1/1to1/0"/>
	<route id="route48" edges="1/0to0/0 0/0to0/1 0/1to0/2 0/2to0/3 0/3to1/3 1/3to1/4 1/4to2/4 2/4to3/4 3/4to4/4 4/4to3/4"/>
	<route id="route49" edges="1/0to2/0 2/0to2/1 2/1to2/2 2/2to3/2 3/2to4/2 4/2to4/3"/>
	<route id="route50" edges="0/1to0/0 0/0to0/1 0/1to0/2 0/2to0/3 0/3to1/3 1/3to2/3 2/3to3/3 3/3to4/3"/>
	<route id="route51" edges="1/0to0/0 0/0to0/1 0/1to0/2 0/2to0/3 0/3to1/3 1/3to1/4 1/4to2/4 2/4to1/4"/>
	<route id="route52" edges="0/3to0/2 0/2to0/1 0/1to1/1 1/1to2/1 2/1to3/1 3/1to4/1"/>
	<route id="route53" edges="1/0to0/0 0/0to0/1 0/1to0/2 0/2to0/3 0/3to1/3 1/3to1/4 1/4to2/4 2/4to3/4 3/4to2/4"/>
	<route id="route54" edges="0/2to0/3 0/3to1/3 1/3to1/4 1/4to2/4 2/4to3/4 3/4to4/4"/>
	<route id="route55" edges="0/0to1/0 1/0to1/1 1/1to1/2 1/2to1/3 1/3to2/3 2/3to3/3 3/3to4/3"/>
	<route id="route56" edges="0/4to0/3 0/3to0/2 0/2to1/2 1/2to2/2 2/2to3/2 3/2to4/2 4/2to4/3"/>
	<route id="route57" edges="4/1to4/2 4/2to3/2 3/2to2/2 2/2to1/2 1/2to0/2 0/2to0/3 0/3to0/4 0/4to0/3"/>
	<route id="route58" edges="2/4to2/3 2/3to2/2 2/2to2/1 2/1to2/0 2/0to3/0 3/0to4/0 4/0to3/0"/>
	<route id="route59" edges="1/4to0/4 0/4to0/3 0/3to0/2 0/2to0/1 0/1to1/1 1/1to2/1 2/1to3/1 3/1to4/1"/>
	<route id="route60" edges="4/4to4/3 4/3to3/3 3/3to2/3 2/3to1/3 1/3to1/2 1/2to1/1 1/1to1/0 1/0to2/0"/>
	<route id="route61" edges="4/3to3/3 3/3to2/3 2/3to1/3 1/3to0/3 0/3to0/2 0/2to0/1 0/1to0/0 0/0to0/1"/>
	<route id="route62" edges="2/4to3/4 3/4to2/4 2/4to2/3 2/3to2/2 2/2to2/1 2/1to2/0"/>
	<route id="route63" edges="0/4to0/3 0/3to0/2 0/2to0/1 0/1to1/1 1/1to2/1 2/1to3/1"/>
	<route id="route64" edges="0/1to0/0 0/0to1/0 1/0to2/0 2/0to3/0 3/0to4/0"/>
	<route id="route65" edges="0/1to0/2 0/2to0/3 0/3to1/3 1/3to2/3 2/3to3/3 3/3to4/3 4/3to4/4"/>
	<route id="route66" edges="2/4to3/4 3/4to3/3 3/3to3/2 3/2to3/1 3/1to3/0 3/0to4/0"/>
	<route id="route67" edges="0/4to1/4 1/4to1/3 1/3to1/2 1/2to1/1 1/1to1/0 1/0to2/0 2/0to3/0 3/0to4/0 4/0to4/1"/>
	<route id="route68" edges="1/4to2/4 2/4to1/4 1/4to1/3 1/3to0/3 0/3to0/2 0/2to0/1 0/1to0/0 0/0to1/0"/>
	<route id="route69" edges="4/1to4/2 4/2to3/2 3/2to2/2 2/2to1/2 1/2to0/2 0/2to0/1 0/1to0/2"/>
	<route id="route70" edges="0/3to0/4 0/4to0/3 0/3to0/2 0/2to0/1 0/1to1/1 1/1to2/1 2/1to3/1 3/1to4/1"/>
	<route id="route71" edges="3/4to3/3 3/3to2/3 2/3to1/3 1/3to0/3 0/3to0/2 0/2to0/1 0/1to0/0 0/0to0/1"/>
	<route id="route72" edges="1/0to0/0 0/0to0/1 0/1to0/2 0/2to0/3 0/3to1/3 1/3to1/4 1/4to0/4"/>
	<route id="route73" edges="0/0to0/1 0/1to0/2 0/2to0/3 0/3to1/3 1/3to1/4 1/4to2/4 2/4to3/4 3/4to3/3"/>
	<route id="route74" edges="4/2to4/3 4/3to3/3 3/3to2/3 2/3to1/3 1/3to0/3 0/3to0/2 0/2to0/3"/>
	<route id="route75" edges="0/3to0/2 0/2to0/3 0/3to1/3 1/3to2/3 2/3to3/3 3/3to4/3 4/3to4/4"/>
	<route id="route76" edges="4/0to4/1 4/1to3/1 3/1to2/1 2/1to1/1 1/1to0/1 0/1to0/2 0/2to0/1"/>
	<route id="route77" edges="4/0to3/0 3/0to2/0 2/0to2/1 2/1to2/2 2/2to2/3 2/3to2/4 2/4to3/4"/>
	<route id="route78" edges="0/3to1/3 1/3to1/2 1/2to1/1 1/1to1/0 1/0to2/0 2/0to3/0"/>
	<route id="route79" edges="4/4to4/3 4/3to4/2 4/2to4/1 4/1to4/0 4/0to3/0"/>
	<route id="route80" edges="1/4to2/4 2/4to2/3 2/3to2/2 2/2to2/1 2/1to2/0"/>
	<route id="route81" edges="0/1to0/2 0/2to1/2 1/2to2/2 2/2to3/2 3/2to4/2 4/2to4/3"/>
	<route id="route82" edges="1/4to0/4 0/4to0/3 0/3to0/2 0/2to0/1 0/1to0/0"/>
	<route id="route83" edges="2/0to2/1 2/1to1/1 1/1to0/1 0/1to0/2 0/2to0/3 0/3to0/4"/>
	<route id="route84" edges="3/4to3/3 3/3to2/3 2/3to1/3 1/3to0/3 0/3to0/2 0/2to0/1 0/1to0/0 0/0to0/1"/>
	<route id="route85" edges="4/3to4/4 4/4to3/4 3/4to2/4 2/4to1/4 1/4to0/4 0/4to0/3"/>
	<route id="route86" edges="0/0to1/0 1/0to1/1 1/1to1/2 1/2to1/3 1/3to2/3 2/3to3/3 3/3to4/3 4/3to4/4"/>
	<route id="route87" edges="0/3to0/4 0/4to0/3 0/3to0/2 0/2to0/1 0/1to1/1 1/1to1/0 1/0to2/0 2/0to3/0 3/0to4/0 4/0to4/1"/>
	<route id="route88" edges="0/3to0/2 0/2to0/1 0/1to1/1 1/1to1/0 1/0to2/0 2/0to3/0 3/0to4/0 4/0to4/1"/>
	<route id="route89" edges="4/0to4/1 4/1to3/1 3/1to2/1 2/1to1/1 1/1to1/2 1/2to1/3 1/3to0/3"/>
	<route id="route90" edges="0/4to0/3 0/3to0/2 0/2to0/1 0/1to1/1 1/1to2/1 2/1to3/1 3/1to4/1 4/1to3/1"/>
	<route id="route91" edges="4/0to4/1 4/1to3/1 3/1to2/1 2/1to1/1 1/1to1/2 1/2to1/3 1/3to0/3"/>
	<route id="route92" edges="4/2to4/3 4/3to3/3 3/3to2/3 2/3to1/3 1/3to1/2 1/2to1/1 1/1to0/1"/>
	<route id="route93" edges="4/2to4/1 4/1to3/1 3/1to2/1 2/1to1/1 1/1to1/2 1/2to0/2"/>
	<route id="route94" edges="4/3to3/3 3/3to2/3 2/3to1/3 1/3to0/3 0/3to0/2 0/2to0/1"/>
	<route id="route95" edges="4/4to4/3 4/3to3/3 3/3to2/3 2/3to1/3 1/3to0/3 0/3to0/2 0/2to0/3"/>
	<route id="route96" edges="4/3to4/4 4/4to3/4 3/4to2/4 2/4to1/4 1/4to1/3 1/3to1/2 1/2to1/1 1/1to1/0 1/0to0/0"/>
	<route id="route97" edges="4/2to4/1 4/1to3/1 3/1to2/1 2/1to1/1 1/1to0/1"/>
	<route id="route98" edges="2/4to1/4 1/4to1/3 1/3to1/2 1/2to1/1 1/1to1/0 1/0to2/0 2/0to3/0 3/0to4/0"/>
	<route id="route99" edges="4/2to4/3 4/3to3/3 3/3to2/3 2/3to1/3 1/3to0/3 0/3to0/4 0/4to0/3"/>
	<route id="route100" edges="4/1to4/0 4/0to3/0 3/0to2/0 2/0to1/0 1/0to1/1 1/1to1/2 1/2to1/3 1/3to0/3"/>
	<route id="route101" edges="0/4to1/4 1/4to1/3 1/3to2/3 2/3to3/3 3/3to4/3 4/3to4/4"/>
	<route id="route102" edges="3/0to2/0 2/0to1/0 1/0to1/1 1/1to1/2 1/2to1/3 1/3to1/4 1/4to2/4"/>
	<route id="route103" edges="4/0to3/0 3/0to3/1 3/1to3/2 3/2to3/3 3/3to3/4 3/4to4/4"/>
	<route id="route104" edges="4/2to4/3 4/3to3/3 3/3to2/3 2/3to1/3 1/3to0/3 0/3to0/4"/>
	<route id="route105" edges="4/1to4/0 4/0to3/0 3/0to2/0 2/0to1/0 1/0to1/1 1/1to0/1 0/1to0/2 0/2to0/3 0/3to0/4 0/4to1/4"/>
	<route id="route106" edges="0/4to1/4 1/4to1/3 1/3to1/2 1/2to2/2 2/2to3/2 3/2to4/2 4/2to4/1"/>
	<route id="route107" edges="0/3to0/4 0/4to0/3 0/3to0/2 0/2to1/2 1/2to2/2 2/2to3/2 3/2to4/2 4/2to4/1"/>
	<route id="route108" edges="0/1to0/2 0/2to0/3 0/3to1/3 1/3to1/4 1/4to2/4 2/4to3/4 3/4to4/4 4/4to4/3"/>
	<route id="route109" edges="0/4to1/4 1/4to1/3 1/3to1/2 1/2to1/1 1/1to2/1 2/1to3/1"/>
	<route id="route110" edges="0/1to0/2 0/2to1/2 1/2to2/2 2/2to3/2 3/2to4/2 4/2to4/3"/>
	<route id="route111" edges="0/1to0/2 0/2to0/3 0/3to1/3 1/3to2/3 2/3to3/3 3/3to4/3 4/3to4/4"/>
	<route id="route112" edges="4/1to4/0 4/0to3/0 3/0to2/0 2/0to1/0 1/0to1/1 1/1to0/1"/>
	<route id="route113" edges="1/0to1/1 1/1to1/2 1/2to1/3 1/3to2/3 2/3to3/3 3/3to4/3 4/3to4/4"/>
	<route id="route114" edges="4/0to4/1 4/1to3/1 3/1to2/1 2/1to1/1 1/1to1/2 1/2to1/3 1/3to1/4"/>
	<route id="route115" edges="1/3to0/3 0/3to0/2 0/2to0/1 0/1to1/1 1/1to1/0 1/0to2/0 2/0to3/0 3/0to4/0"/>
	<route id="route116" edges="0/3to0/4 0/4to0/3 0/3to0/2 0/2to1/2 1/2to2/2 2/2to3/2 3/2to4/2"/>
	<route id="route117" edges="3/4to4/4 4/4to3/4 3/4to2/4 2/4to1/4 1/4to1/3 1/3to0/3 0/3to0/2 0/2to0/1 0/1to0/0 0/0to0/1"/>
	<route id="route118" edges="4/2to4/3 4/3to3/3 3/3to2/3 2/3to1/3 1/3to0/3"/>
	<route id="route119" edges="0/0to1/0 1/0to1/1 1/1to1/2 1/2to2/2 2/2to3/2 3/2to4/2 4/2to4/3"/>
	<route id="route120" edges="1/0to1/1 1/1to1/2 1/2to1/3 1/3to1/4 1/4to2/4 2/4to3/4"/>
	<route id="route121" edges="1/4to1/3 1/3to1/2 1/2to1/1 1/1to2/1 2/1to3/1 3/1to4/1"/>
	<route id="route122" edges="3/4to2/4 2/4to1/4 1/4to1/3 1/3to1/2 1/2to1/1 1/1to1/0 1/0to2/0"/>
	<route id="route123" edges="2/4to1/4 1/4to1/3 1/3to1/2 1/2to1/1 1/1to1/0 1/0to2/0 2/0to3/0"/>
	<route id="route124" edges="3/0to2/0 2/0to2/1 2/1to2/2 2/2to2/3 2/3to2/4 2/4to3/4 3/4to2/4"/>
	<route id="route125" edges="0/4to0/3 0/3to0/2 0/2to1/2 1/2to2/2 2/2to3/2 3/2to3/1"/>
	<route id="route126" edges="0/0to0/1 0/1to0/2 0/2to0/3 0/3to1/3 1/3to2/3 2/3to3/3 3/3to4/3 4/3to4/2"/>
	<route id="route127" edges="1/4to0/4 0/4to0/3 0/3to0/2 0/2to0/1 0/1to1/1 1/1to1/0 1/0to2/0 2/0to3/0 3/0to2/0"/>
	<route id="route128" edges="4/2to3/2 3/2to2/2 2/2to1/2 1/2to1/1 1/1to1/0 1/0to0/0"/>
	<route id="route129" edges="3/0to2/0 2/0to2/1 2/1to2/2 2/2to2/3 2/3to2/4 2/4to1/4"/>
	<route id="route130" edges="1/4to0/4 0/4to0/3 0/3to0/2 0/2to0/1 0/1to1/1 1/1to1/0 1/0to2/0 2/0to3/0 3/0to4/0"/>
	<route id="route131" edges="4/0to3/0 3/0to2/0 2/0to1/0 1/0to1/1 1/1to1/2 1/2to1/3 1/3to1/4 1/4to2/4"/>
	<route id="route132" edges="4/4to4/3 4/3to4/2 4/2to4/1 4/1to4/0 4/0to3/0"/>
	<route id="route133" edges="2/4to3/4 3/4to3/3 3/3to3/2 3/2to3/1 3/1to4/1 4/1to4/0"/>
	<route id="route134" edges="0/3to1/3 1/3to2/3 2/3to3/3 3/3to4/3 4/3to4/4"/>
	<route id="route135" edges="3/4to2/4 2/4to1/4 1/4to1/3 1/3to1/2 1/2to1/1 1/1to1/0 1/0to0/0"/>
	<route id="route136" edges="0/3to1/3 1/3to1/2 1/2to2/2 2/2to3/2 3/2to4/2 4/2to4/3"/>
	<route id="route137" edges="2/4to2/3 2/3to2/2 2/2to2/1 2/1to2/0 2/0to1/0"/>
	<route id="route138" edges="0/1to1/1 1/1to1/2 1/2to1/3 1/3to1/4 1/4to2/4 2/4to3/4 3/4to4/4 4/4to3/4"/>
	<route id="route139" edges="1/4to2/4 2/4to1/4 1/4to1/3 1/3to0/3 0/3to0/2 0/2to0/1 0/1to0/0"/>
	<route id="route140" edges="4/1to4/2 4/2to3/2 3/2to2/2 2/2to1/2 1/2to0/2 0/2to0/1 0/1to0/0 0/0to0/1"/>
	<route id="route141" edges="0/0to0/1 0/1to1/1 1/1to1/0 1/0to2/0 2/0to3/0 3/0to4/0 4/0to4/1"/>
	<route id="route142" edges="4/0to4/1 4/1to3/1 3/1to2/1 2/1to2/2 2/2to2/3 2/3to2/4"/>
	<route id="route143" edges="4/4to3/4 3/4to3/3 3/3to3/2 3/2to3/1 3/1to3/0 3/0to2/0"/>
	<route id="route144" edges="4/4to4/3 4/3to3/3 3/3to2/3 2/3to1/3 1/3to1/2 1/2to1/1"/>
	<route id="route145" edges="1/4to1/3 1/3to0/3 0/3to0/2 0/2to0/1 0/1to0/0"/>
	<route id="route146" edges="4/3to4/4 4/4to3/4 3/4to2/4 2/4to1/4 1/4to1/3 1/3to0/3 0/3to0/2 0/2to0/3"/>
	<route id="route147" edges="3/3to2/3 2/3to1/3 1/3to1/2 1/2to1/1 1/1to1/0 1/0to0/0"/>
	<route id="route148" edges="0/3to1/3 1/3to1/2 1/2to1/1 1/1to2/1 2/1to3/1 3/1to3/0"/>
	<route id="route149" edges="3/4to2/4 2/4to1/4 1/4to1/3 1/3to0/3 0/3to0/2 0/2to0/1 0/1to0/0"/>
	<route id="route150" edges="0/1to0/0 0/0to0/1 0/1to0/2 0/2to0/3 0/3to1/3 1/3to1/4 1/4to2/4 2/4to3/4 3/4to4/4"/>
	<route id="route151" edges="3/0to2/0 2/0to2/1 2/1to2/2 2/2to2/3 2/3to3/3 3/3to4/3 4/3to4/4"/>
	<route id="route152" edges="0/1to1/1 1/1to1/2 1/2to1/3 1/3to1/4 1/4to2/4 2/4to3/4 3/4to4/4"/>
	<route id="route153" edges="2/0to1/0 1/0to1/1 1/1to1/2 1/2to1/3 1/3to2/3 2/3to3/3 3/3to4/3 4/3to4/4"/>
	<route id="route154" edges="0/2to0/3 0/3to1/3 1/3to1/4 1/4to2/4 2/4to3/4 3/4to4/4 4/4to4/3"/>
	<route id="route155" edges="3/0to3/1 3/1to2/1 2/1to1/1 1/1to0/1 0/1to0/2 0/2to0/3 0/3to0/4"/>
	<route id="route156" edges="4/0to4/1 4/1to3/1 3/1to2/1 2/1to1/1 1/1to1/2 1/2to0/2"/>
	<route id="route157" edges="3/4to4/4 4/4to3/4 3/4to2/4 2/4to1/4 1/4to1/3 1/3to1/2 1/2to1/1 1/1to0/1"/>
	<route id="route158" edges="3/0to3/1 3/1to3/2 3/2to3/3 3/3to3/4 3/4to4/4 4/4to3/4"/>
	<route id="route159" edges="4/0to4/1 4/1to3/1 3/1to2/1 2/1to1/1 1/1to0/1 0/1to0/0"/>
	<route id="route160" edges="4/0to3/0 3/0to2/0 2/0to1/0 1/0to1/1 1/1to0/1 0/1to0/0"/>
	<route id="route161" edges="0/3to0/4 0/4to0/3 0/3to0/2 0/2to0/1 0/1to1/1 1/1to1/0 1/0to2/0 2/0to3/0 3/0to4/0"/>
	<route id="route162" edges="0/3to1/3 1/3to1/2 1/2to1/1 1/1to2/1 2/1to3/1 3/1to3/0"/>
	<route id="route163" edges="2/0to2/1 2/1to2/2 2/2to2/3 2/3to2/4"/>
	<route id="route164" edges="4/4to4/3 4/3to3/3 3/3to2/3 2/3to1/3 1/3to0/3 0/3to0/4 0/4to0/3"/>
	<route id="route165" edges="2/0to3/0 3/0to2/0 2/0to1/0 1/0to1/1 1/1to1/2 1/2to1/3 1/3to1/4 1/4to0/4"/>
	<route id="route166" edges="0/3to0/4 0/4to0/3 0/3to0/2 0/2to0/1 0/1to1/1 1/1to1/0 1/0to2/0 2/0to3/0"/>
	<route id="route167" edges="0/3to0/2 0/2to0/3 0/3to1/3 1/3to1/4 1/4to2/4 2/4to3/4 3/4to4/4 4/4to4/3"/>
	<route id="route168" edges="4/4to3/4 3/4to2/4 2/4to1/4 1/4to1/3 1/3to0/3 0/3to0/2 0/2to0/1 0/1to0/0 0/0to0/1"/>
	<route id="route169" edges="2/0to2/1 2/1to2/2 2/2to2/3 2/3to2/4 2/4to3/4 3/4to4/4 4/4to3/4"/>
	<route id="route170" edges="0/2to0/1 0/1to1/1 1/1to1/0 1/0to2/0 2/0to3/0 3/0to4/0 4/0to4/1"/>
	<route id="route171" edges="4/1to4/0 4/0to3/0 3/0to2/0 2/0to1/0 1/0to1/1 1/1to0/1 0/1to0/2 0/2to0/3 0/3to0/4 0/4to1/4"/>
	<route id="route172" edges="0/0to1/0 1/0to1/1 1/1to2/1 2/1to3/1 3/1to4/1 4/1to4/2"/>
	<route id="route173" edges="0/0to0/1 0/1to0/2 0/2to1/2 1/2to2/2 2/2to3/2 3/2to4/2 4/2to4/3"/>
	<route id="route174" edges="4/0to4/1 4/1to3/1 3/1to2/1 2/1to1/1 1/1to1/2 1/2to0/2"/>
	<route id="route175" edges="1/4to0/4 0/4to0/3 0/3to0/2 0/2to1/2 1/2to2/2 2/2to3/2 3/2to4/2 4/2to4/1"/>
	<route id="route176" edges="1/0to2/0 2/0to1/0 1/0to1/1 1/1to0/1 0/1to0/2 0/2to0/3 0/3to0/4 0/4to1/4"/>
	<route id="route177" edges="4/2to4/3 4/3to3/3 3/3to2/3 2/3to1/3 1/3to0/3 0/3to0/2 0/2to0/1 0/1to0/0 0/0to0/1"/>
	<route id="route178" edges="4/1to4/2 4/2to3/2 3/2to2/2 2/2to1/2 1/2to1/1 1/1to1/0 1/0to0/0"/>
	<route id="route179" edges="2/0to3/0 3/0to2/0 2/0to1/0 1/0to1/1 1/1to1/2 1/2to1/3 1/3to1/4 1/4to2/4"/>
	<route id="route180" edges="4/1to3/1 3/1to2/1 2/1to1/1 1/1to0/1 0/1to0/2 0/2to0/3 0/3to0/4"/>
	<route id="route181" edges="4/1to4/2 4/2to3/2 3/2to2/2 2/2to1/2 1/2to0/2 0/2to0/3 0/3to0/2"/>
	<route id="route182" edges="4/0to3/0 3/0to3/1 3/1to3/2 3/2to3/3 3/3to4/3 4/3to4/4"/>
	<route id="route183" edges="0/1to0/0 0/0to0/1 0/1to0/2 0/2to0/3 0/3to1/3 1/3to2/3 2/3to3/3 3/3to4/3"/>
	<route id="route184" edges="4/1to4/2 4/2to3/2 3/2to2/2 2/2to1/2 1/2to1/3 1/3to0/3"/>
	<route id="route185" edges="2/4to3/4 3/4to3/3 3/3to3/2 3/2to3/1 3/1to4/1 4/1to4/0"/>
	<route id="route186" edges="3/0to4/0 4/0to3/0 3/0to2/0 2/0to1/0 1/0to1/1 1/1to0/1 0/1to0/2 0/2to0/3"/>
	<route id="route187" edges="4/1to4/0 4/0to3/0 3/0to2/0 2/0to1/0 1/0to1/1 1/1to1/2 1/2to1/3 1/3to0/3"/>
	<route id="route188" edges="0/0to0/1 0/1to0/2 0/2to0/3 0/3to1/3 1/3to2/3 2/3to3/3 3/3to4/3"/>
	<route id="route189" edges="0/0to0/1 0/1to0/2 0/2to0/3 0/3to1/3 1/3to1/4 1/4to2/4 2/4to3/4 3/4to4/4"/>
	<route id="route190" edges="0/1to0/2 0/2to0/3 0/3to1/3 1/3to2/3 2/3to3/3 3/3to4/3"/>
	<route id="route191" edges="4/0to4/1 4/1to3/1 3/1to2/1 2/1to1/1 1/1to0/1 0/1to0/2 0/2to0/3 0/3to1/3"/>
	<route id="route192" edges="3/0to2/0 2/0to1/0 1/0to1/1 1/1to0/1 0/1to0/2 0/2to0/3 0/3to0/4 0/4to1/4"/>
	<route id="route193" edges="3/4to2/4 2/4to1/4 1/4to1/3 1/3to1/2 1/2to1/1 1/1to0/1"/>
	<route id="route194" edges="4/0to3/0 3/0to2/0 2/0to1/0 1/0to1/1 1/1to1/2 1/2to1/3 1/3to1/4 1/4to0/4"/>
	<route id="route195" edges="1/0to0/0 0/0to0/1 0/1to0/2 0/2to0/3 0/3to0/4"/>
	<route id="route196" edges="1/0to2/0 2/0to1/0 1/0to1/1 1/1to1/2 1/2to1/3 1/3to1/4 1/4to0/4"/>
	<route id="route197" edges="2/0to2/1 2/1to1/1 1/1to1/2 1/2to1/3 1/3to1/4 1/4to0/4"/>
	<route id="route198" edges="4/3to4/4 4/4to3/4 3/4to2/4 2/4to1/4 1/4to1/3 1/3to0/3 0/3to0/2"/>
	<route id="route199" edges="0/0to1/0 1/0to2/0 2/0to3/0 3/0to4/0"/>
	<route id="route200" edges="0/4to1/4 1/4to2/4 2/4to3/4 3/4to4/4 4/4to4/3"/>
	<route id="route201" edges="4/3to4/2 4/2to3/2 3/2to2/2 2/2to1/2 1/2to0/2 0/2to0/3 0/3to0/4"/>
	<route id="route202" edges="1/4to2/4 2/4to2/3 2/3to2/2 2/2to3/2 3/2to4/2 4/2to4/1"/>
	<route id="route203" edges="1/1to0/1 0/1to0/2 0/2to0/3 0/3to1/3 1/3to2/3 2/3to3/3 3/3to4/3 4/3to4/4"/>
	<route id="route204" edges="1/4to2/4 2/4to1/4 1/4to1/3 1/3to0/3 0/3to0/2 0/2to0/1 0/1to0/0"/>
	<route id="route205" edges="4/1to3/1 3/1to2/1 2/1to1/1 1/1to0/1 0/1to0/2 0/2to0/3"/>
	<route id="route206" edges="4/3to4/2 4/2to3/2 3/2to2/2 2/2to1/2 1/2to0/2 0/2to0/1 0/1to0/0 0/0to1/0"/>
	<route id="route207" edges="0/1to0/0 0/0to0/1 0/1to0/2 0/2to1/2 1/2to2/2 2/2to3/2 3/2to4/2"/>
	<route id="route208" edges="4/3to4/2 4/2to3/2 3/2to2/2 2/2to1/2 1/2to1/1 1/1to1/0"/>
	<route id="route209" edges="2/0to3/0 3/0to3/1 3/1to3/2 3/2to3/3 3/3to3/4 3/4to4/4"/>
	<route id="route210" edges="2/4to1/4 1/4to1/3 1/3to1/2 1/2to1/1 1/1to1/0 1/0to2/0 2/0to3/0 3/0to4/0"/>
	<route id="route211" edges="2/4to1/4 1/4to1/3 1/3to1/2 1/2to1/1 1/1to2/1 2/1to3/1 3/1to3/0"/>
	<route id="route212" edges="2/4to3/4 3/4to2/4 2/4to1/4 1/4to1/3 1/3to1/2 1/2to1/1 1/1to1/0 1/0to2/0"/>
	<route id="route213" edges="0/0to0/1 0/1to1/1 1/1to1/0 1/0to2/0 2/0to3/0 3/0to4/0 4/0to4/1"/>
	<route id="route214" edges="0/3to0/2 0/2to0/1 0/1to1/1 1/1to1/0 1/0to2/0 2/0to3/0 3/0to4/0 4/0to4/1"/>
	<route id="route215" edges="0/4to0/3 0/3to0/2 0/2to1/2 1/2to2/2 2/2to3/2 3/2to4/2"/>
	<route id="route216" edges="4/4to4/3 4/3to3/3 3/3to2/3 2/3to1/3 1/3to0/3 0/3to0/2 0/2to0/1 0/1to0/0 0/0to1/0"/>
	<route id="route217" edges="4/1to4/2 4/2to3/2 3/2to2/2 2/2to2/3 2/3to2/4 2/4to1/4"/>
	<route id="route218" edges="4/0to3/0 3/0to2/0 2/0to2/1 2/1to2/2 2/2to2/3 2/3to2/4 2/4to3/4"/>
	<route id="route219" edges="3/0to4/0 4/0to3/0 3/0to2/0 2/0to2/1 2/1to2/2 2/2to2/3 2/3to2/4 2/4to1/4"/>
	<route id="route220" edges="1/4to2/4 2/4to2/3 2/3to2/2 2/2to2/1 2/1to3/1 3/1to4/1 4/1to4/0"/>
	<route id="route221" edges="4/4to3/4 3/4to2/4 2/4to1/4 1/4to0/4 0/4to0/3"/>
	<route id="route222" edges="4/3to4/4 4/4to3/4 3/4to2/4 2/4to1/4 1/4to1/3 1/3to0/3 0/3to0/2 0/2to0/3"/>
	<route id="route223" edges="4/4to3/4 3/4to2/4 2/4to1/4 1/4to1/3 1/3to0/3 0/3to0/2"/>
	<route id="route224" edges="4/2to4/1 4/1to3/1 3/1to2/1 2/1to1/1 1/1to0/1 0/1to0/2 0/2to0/3 0/3to0/4 0/4to0/3"/>
	<route id="route225" edges="4/0to4/1 4/1to4/2 4/2to4/3 4/3to4/4 4/4to3/4"/>
	<route id="route226" edges="0/0to1/0 1/0to1/1 1/1to1/2 1/2to1/3 1/3to1/4 1/4to2/4 2/4to3/4"/>
	<route id="route227" edges="4/4to4/3 4/3to4/2 4/2to4/1 4/1to4/0"/>
	<route id="route228" edges="0/3to0/2 0/2to1/2 1/2to2/2 2/2to3/2 3/2to4/2"/>
	<route id="route229" edges="4/0to4/1 4/1to4/2 4/2to4/3 4/3to4/4 4/4to3/4"/>
	<route id="route230" edges="2/0to3/0 3/0to2/0 2/0to1/0 1/0to1/1 1/1to1/2 1/2to1/3 1/3to1/4 1/4to0/4"/>
	<route id="route231" edges="1/4to2/4 2/4to1/4 1/4to1/3 1/3to1/2 1/2to1/1 1/1to1/0"/>
	<route id="route232" edges="4/4to4/3 4/3to3/3 3/3to3/2 3/2to3/1 3/1to3/0 3/0to4/0"/>
	<route id="route233" edges="3/3to2/3 2/3to1/3 1/3to0/3 0/3to0/2 0/2to0/1 0/1to0/0"/>
	<route id="route234" edges="1/0to1/1 1/1to1/2 1/2to1/3 1/3to2/3 2/3to3/3 3/3to4/3 4/3to4/4"/>
	<route id="route235" edges="0/1to0/2 0/2to0/3 0/3to1/3 1/3to1/4 1/4to2/4 2/4to3/4 3/4to4/4 4/4to3/4"/>
	<route id="route236" edges="0/1to0/0 0/0to0/1 0/1to0/2 0/2to0/3 0/3to1/3 1/3to2/3 2/3to3/3 3/3to4/3 4/3to4/4"/>
	<route id="route237" edges="2/0to1/0 1/0to1/1 1/1to0/1 0/1to0/2 0/2to0/3 0/3to0/4 0/4to1/4"/>
	<route id="route238" edges="0/0to1/0 1/0to1/1 1/1to1/2 1/2to1/3 1/3to2/3 2/3to2/4"/>
	<route id="route239" edges="4/1to4/0 4/0to3/0 3/0to2/0 2/0to1/0 1/0to1/1 1/1to0/1 0/1to0/0"/>
	<route id="route240" edges="3/0to2/0 2/0to2/1 2/1to2/2 2/2to2/3 2/3to2/4 2/4to1/4"/>
	<route id="route241" edges="2/0to3/0 3/0to2/0 2/0to2/1 2/1to2/2 2/2to2/3 2/3to2/4"/>
	<route id="route242" edges="0/4to1/4 1/4to1/3 1/3to1/2 1/2to2/2 2/2to3/2 3/2to4/2"/>
	<route id="route243" edges="1/4to0/4 0/4to0/3 0/3to0/2 0/2to0/1 0/1to1/1 1/1to2/1 2/1to3/1 3/1to3/0"/>
	<route id="route244" edges="0/2to1/2 1/2to2/2 2/2to3/2 3/2to4/2 4/2to4/3"/>
	<route id="route245" edges="0/2to0/1 0/1to0/2 0/2to0/3 0/3to1/3 1/3to2/3 2/3to3/3 3/3to4/3 4/3to4/4"/>
	<route id="route246" edges="3/4to3/3 3/3to3/2 3/2to3/1 3/1to3/0 3/0to4/0"/>
	<route id="route247" edges="2/4to1/4 1/4to1/3 1/3to1/2 1/2to1/1 1/1to2/1 2/1to3/1 3/1to3/0"/>
	<route id="route248" edges="4/4to3/4 3/4to2/4 2/4to2/3 2/3to2/2 2/2to2/1 2/1to2/0 2/0to3/0"/>
	<route id="route249" edges="1/0to2/0 2/0to1/0 1/0to1/1 1/1to0/1 0/1to0/2 0/2to0/3 0/3to0/4"/>
	<route id="route250" edges="3/4to2/4 2/4to2/3 2/3to2/2 2/2to2/1 2/1to3/1 3/1to4/1 4/1to4/0"/>
	<route id="route251" edges="4/3to3/3 3/3to2/3 2/3to1/3 1/3to0/3"/>
	<route id="route252" edges="0/2to0/1 0/1to0/2 0/2to0/3 0/3to1/3 1/3to2/3 2/3to3/3 3/3to4/3"/>
	<route id="route253" edges="4/3to4/4 4/4to3/4 3/4to2/4 2/4to1/4 1/4to1/3 1/3to1/2 1/2to1/1 1/1to0/1"/>
	<route id="route254" edges="2/4to2/3 2/3to1/3 1/3to0/3 0/3to0/2 0/2to0/1 0/1to0/0"/>
	<route id="route255" edges="0/0to0/1 0/1to0/2 0/2to0/3 0/3to1/3 1/3to2/3 2/3to2/4"/>
	<route id="route256" edges="0/4to1/4 1/4to1/3 1/3to1/2 1/2to2/2 2/2to3/2 3/2to4/2 4/2to4/1"/>
	<route id="route257" edges="3/4to2/4 2/4to1/4 1/4to1/3 1/3to0/3 0/3to0/2 0/2to0/1 0/1to0/0 0/0to1/0"/>
	<route id="route258" edges="4/4to4/3 4/3to3/3 3/3to2/3 2/3to1/3 1/3to1/2 1/2to1/1 1/1to1/0 1/0to1/1"/>
	<route id="route259" edges="2/4to2/3 2/3to2/2 2/2to2/1 2/1to2/0 2/0to3/0 3/0to4/0 4/0to3/0"/>
	<route id="route260" edges="4/0to4/1 4/1to3/1 3/1to2/1 2/1to1/1 1/1to0/1 0/1to0/2 0/2to0/3 0/3to0/4 0/4to0/3"/>
	<route id="route261" edges="1/0to0/0 0/0to0/1 0/1to0/2 0/2to0/3 0/3to0/4 0/4to1/4"/>
	<route id="route262" edges="4/3to4/4 4/4to3/4 3/4to2/4 2/4to1/4 1/4to1/3 1/3to0/3 0/3to0/2 0/2to0/1 0/1to0/0"/>
	<route id="route263" edges="3/4to3/3 3/3to3/2 3/2to3/1 3/1to3/0 3/0to4/0"/>
	<route id="route264" edges="0/2to0/1 0/1to1/1 1/1to2/1 2/1to3/1 3/1to4/1 4/1to4/0"/>
	<route id="route265" edges="4/2to4/1 4/1to3/1 3/1to2/1 2/1to1/1 1/1to0/1 0/1to0/2 0/2to0/3"/>
	<route id="route266" edges="4/0to3/0 3/0to2/0 2/0to1/0 1/0to0/0"/>
	<route id="route267" edges="0/0to1/0 1/0to1/1 1/1to1/2 1/2to1/3 1/3to2/3 2/3to3/3 3/3to4/3 4/3to4/2"/>
	<route id="route268" edges="0/1to0/2 0/2to1/2 1/2to2/2 2/2to3/2 3/2to4/2"/>
	<route id="route269" edges="0/0to1/0 1/0to1/1 1/1to0/1 0/1to0/2 0/2to0/3 0/3to0/4"/>
	<route id="route270" edges="4/2to4/3 4/3to3/3 3/3to2/3 2/3to1/3 1/3to0/3 0/3to0/2 0/2to0/1 0/1to0/0 0/0to0/1"/>
	<route id="route271" edges="2/0to2/1 2/1to1/1 1/1to1/2 1/2to1/3 1/3to1/4"/>
	<route id="route272" edges="0/0to1/0 1/0to1/1 1/1to1/2 1/2to1/3 1/3to1/4 1/4to2/4 2/4to1/4"/>
	<route id="route273" edges="1/0to0/0 0/0to0/1 0/1to0/2 0/2to0/3 0/3to1/3 1/3to1/4"/>
	<route id="route274" edges="0/2to1/2 1/2to2/2 2/2to3/2 3/2to4/2"/>
	<route id="route275" edges="4/0to3/0 3/0to3/1 3/1to3/2 3/2to3/3 3/3to3/4"/>
	<route id="route276" edges="4/0to4/1 4/1to4/2 4/2to4/3 4/3to4/4 4/4to3/4"/>
	<route id="route277" edges="4/0to3/0 3/0to2/0 2/0to1/0 1/0to1/1 1/1to1/2 1/2to1/3 1/3to1/4 1/4to2/4"/>
	<route id="route278" edges="2/0to1/0 1/0to1/1 1/1to1/2 1/2to1/3 1/3to1/4 1/4to0/4"/>
	<route id="route279" edges="3/4to3/3 3/3to2/3 2/3to1/3 1/3to1/2 1/2to1/1 1/1to0/1"/>
	<route id="route280" edges="1/0to2/0 2/0to2/1 2/1to2/2 2/2to2/3 2/3to2/4 2/4to1/4"/>
	<route id="route281" edges="4/2to3/2 3/2to2/2 2/2to1/2 1/2to1/3 1/3to0/3"/>
	<route id="route282" edges="1/0to2/0 2/0to2/1 2/1to2/2 2/2to2/3 2/3to2/4"/>
	<route id="route283" edges="2/4to1/4 1/4to1/3 1/3to1/2 1/2to1/1 1/1to1/0 1/0to2/0"/>
	<route id="route284" edges="4/4to4/3 4/3to3/3 3/3to2/3 2/3to1/3 1/3to0/3 0/3to0/2 0/2to0/1 0/1to0/0 0/0to1/0"/>
	<route id="route285" edges="1/4to1/3 1/3to1/2 1/2to1/1 1/1to1/0 1/0to2/0 2/0to3/0"/>
	<route id="route286" edges="4/1to4/0 4/0to3/0 3/0to2/0 2/0to1/0 1/0to1/1 1/1to0/1 0/1to0/2 0/2to0/1"/>
	<route id="route287" edges="4/3to4/2 4/2to3/2 3/2to2/2 2/2to1/2 1/2to0/2 0/2to0/3"/>
	<route id="route288" edges="4/0to3/0 3/0to3/1 3/1to3/2 3/2to3/3 3/3to3/4"/>
	<route id="route289" edges="0/2to0/1 0/1to1/1 1/1to2/1 2/1to3/1 3/1to4/1"/>
	<route id="route290" edges="4/3to4/2 4/2to3/2 3/2to2/2 2/2to1/2 1/2to0/2"/>
	<route id="route291" edges="2/0to2/1 2/1to2/2 2/2to2/3 2/3to3/3 3/3to3/4"/>
	<route id="route292" edges="0/0to1/0 1/0to1/1 1/1to1/2 1/2to1/3 1/3to1/4"/>
	<route id="route293" edges="1/4to0/4 0/4to0/3 0/3to0/2 0/2to0/1 0/1to1/1 1/1to1/0 1/0to0/0"/>
	<route id="route294" edges="4/0to3/0 3/0to2/0 2/0to1/0 1/0to1/1 1/1to0/1 0/1to0/2 0/2to0/3 0/3to0/4 0/4to1/4"/>
	<route id="route295" edges="1/0to2/0 2/0to1/0 1/0to1/1 1/1to0/1 0/1to0/2 0/2to0/3 0/3to0/4"/>
	<route id="route296" edges="2/4to1/4 1/4to1/3 1/3to1/2 1/2to1/1 1/1to2/1 2/1to3/1 3/1to4/1 4/1to4/0"/>
	<route id="route297" edges="4/2to4/3 4/3to3/3 3/3to2/3 2/3to1/3 1/3to0/3 0/3to0/4 0/4to0/3"/>
	<route id="route298" edges="3/4to4/4 4/4to3/4 3/4to2/4 2/4to1/4 1/4to1/3 1/3to0/3 0/3to0/2 0/2to0/1 0/1to0/0 0/0to1/0"/>
	<route id="route299" edges="4/4to4/3 4/3to3/3 3/3to2/3 2/3to1/3 1/3to0/3 0/3to0/2 0/2to0/3"/>
	<route id="route300" edges="1/4to2/4 2/4to2/3 2/3to2/2 2/2to2/1 2/1to2/0 2/0to3/0 3/0to2/0"/>
	<route id="route301" edges="4/1to4/0 4/0to3/0 3/0to2/0 2/0to1/0 1/0to1/1 1/1to0/1 0/1to0/2 0/2to0/3"/>
	<route id="route302" edges="1/4to1/3 1/3to1/2 1/2to1/1 1/1to1/0 1/0to2/0 2/0to3/0 3/0to2/0"/>
	<route id="route303" edges="0/1to0/2 0/2to0/3 0/3to1/3 1/3to1/4 1/4to2/4 2/4to3/4 3/4to4/4 4/4to4/3"/>
	<route id="route304" edges="3/0to4/0 4/0to3/0 3/0to2/0 2/0to1/0 1/0to1/1 1/1to1/2 1/2to1/3 1/3to0/3"/>
	<route id="route305" edges="4/1to4/2 4/2to3/2 3/2to2/2 2/2to2/3 2/3to2/4 2/4to1/4"/>
	<route id="route306" edges="3/4to4/4 4/4to3/4 3/4to2/4 2/4to2/3 2/3to2/2 2/2to2/1 2/1to2/0 2/0to1/0"/>
	<route id="route307" edges="0/0to0/1 0/1to0/2 0/2to0/3 0/3to1/3 1/3to1/4 1/4to2/4 2/4to3/4 3/4to4/4"/>
	<route id="route308" edges="1/4to2/4 2/4to2/3 2/3to2/2 2/2to2/1 2/1to3/1 3/1to3/0"/>
	<route id="route309" edges="2/4to2/3 2/3to1/3 1/3to0/3 0/3to0/2 0/2to0/1 0/1to0/0 0/0to1/0"/>
	<route id="route310" edges="4/0to3/0 3/0to2/0 2/0to1/0 1/0to1/1 1/1to0/1 0/1to0/2 0/2to0/3 0/3to0/4 0/4to1/4"/>
	<route id="route311" edges="1/4to0/4 0/4to0/3 0/3to0/2 0/2to0/1 0/1to0/0 0/0to1/0"/>
	<route id="route312" edges="4/3to3/3 3/3to2/3 2/3to1/3 1/3to0/3 0/3to0/2 0/2to0/1 0/1to0/0 0/0to0/1"/>
	<route id="route313" edges="0/1to0/2 0/2to0/1 0/1to1/1 1/1to2/1 2/1to3/1 3/1to4/1 4/1to4/2"/>
	<route id="route314" edges="0/1to0/2 0/2to0/1 0/1to1/1 1/1to1/0 1/0to2/0 2/0to3/0 3/0to4/0"/>
	<route id="route315" edges="3/1to4/1 4/1to3/1 3/1to2/1 2/1to1/1 1/1to1/2 1/2to1/3 1/3to1/4 1/4to0/4"/>
	<route id="route316" edges="1/4to2/4 2/4to2/3 2/3to2/2 2/2to2/1 2/1to2/0 2/0to3/0"/>
	<route id="route317" edges="4/0to3/0 3/0to2/0 2/0to2/1 2/1to2/2 2/2to2/3 2/3to2/4 2/4to1/4"/>
	<route id="route318" edges="4/1to3/1 3/1to2/1 2/1to1/1 1/1to0/1 0/1to0/2 0/2to0/1"/>