<?xml version="1.0" encoding="UTF-8"?>

<!-- generated on Tue Sep 22 09:52:15 2015 by SUMO netgenerate Version 0.21.0
<?xml version="1.0" encoding="UTF-8"?>

<configuration xmlns:xsi="http://www.w3.org/2001/XMLSchema-instance" xsi:noNamespaceSchemaLocation="http://sumo-sim.org/xsd/netgenerateConfiguration.xsd">

    <grid_network>
        <grid value="true"/>
        <grid.x-number value="3"/>
        <grid.y-number value="2"/>
        <grid.x-length value="100"/>
        <grid.y-length value="100"/>
    </grid_network>

    <output>
        <output-file value="OFT1.net.xml"/>
    </output>

    <building_defaults>
        <default.lanenumber value="2"/>
    </building_defaults>

</configuration>
-->

<net version="0.13" xmlns:xsi="http://www.w3.org/2001/XMLSchema-instance" xsi:noNamespaceSchemaLocation="http://sumo-sim.org/xsd/net_file.xsd">

    <location netOffset="0.00,0.00" convBoundary="0.00,0.00,200.00,100.00" origBoundary="0.00,0.00,200.00,100.00" projParameter="!"/>

    <edge id=":0/0_0" function="internal">
        <lane id=":0/0_0_0" index="0" speed="13.90" length="15.89" shape="-4.95,6.55 -4.23,1.52 -2.08,-2.08 1.52,-4.23 6.55,-4.95"/>
        <lane id=":0/0_0_1" index="1" speed="13.90" length="15.89" shape="-1.65,6.55 -1.14,2.96 0.40,0.40 2.96,-1.14 6.55,-1.65"/>
    </edge>
    <edge id=":0/0_2" function="internal">
        <lane id=":0/0_2_0" index="0" speed="13.90" length="2.41" shape="-1.65,6.55 -0.83,5.31 -0.00,4.90"/>
    </edge>
    <edge id=":0/0_6" function="internal">
        <lane id=":0/0_6_0" index="0" speed="13.90" length="2.41" shape="-0.00,4.90 0.82,5.31 1.65,6.55"/>
    </edge>
    <edge id=":0/0_3" function="internal">
        <lane id=":0/0_3_0" index="0" speed="13.90" length="5.24" shape="6.55,4.95 5.85,5.05 5.35,5.35 5.05,5.85 4.95,6.55"/>
        <lane id=":0/0_3_1" index="1" speed="13.90" length="5.24" shape="6.55,1.65 4.41,1.96 2.88,2.87 1.96,4.41 1.65,6.55"/>
    </edge>
    <edge id=":0/0_5" function="internal">
        <lane id=":0/0_5_0" index="0" speed="13.90" length="2.41" shape="6.55,1.65 5.31,0.83 4.90,0.00"/>
    </edge>
    <edge id=":0/0_7" function="internal">
        <lane id=":0/0_7_0" index="0" speed="13.90" length="2.41" shape="4.90,0.00 5.31,-0.82 6.55,-1.65"/>
    </edge>
    <edge id=":0/1_0" function="internal">
        <lane id=":0/1_0_0" index="0" speed="13.90" length="15.89" shape="6.55,104.95 1.52,104.23 -2.08,102.08 -4.23,98.48 -4.95,93.45"/>
        <lane id=":0/1_0_1" index="1" speed="13.90" length="15.89" shape="6.55,101.65 2.96,101.14 0.40,99.60 -1.14,97.04 -1.65,93.45"/>
    </edge>
    <edge id=":0/1_2" function="internal">
        <lane id=":0/1_2_0" index="0" speed="13.90" length="2.41" shape="6.55,101.65 5.31,100.82 4.90,100.00"/>
    </edge>
    <edge id=":0/1_6" function="internal">
        <lane id=":0/1_6_0" index="0" speed="13.90" length="2.41" shape="4.90,100.00 5.31,99.17 6.55,98.35"/>
    </edge>
    <edge id=":0/1_3" function="internal">
        <lane id=":0/1_3_0" index="0" speed="13.90" length="5.24" shape="4.95,93.45 5.05,94.15 5.35,94.65 5.85,94.95 6.55,95.05"/>
        <lane id=":0/1_3_1" index="1" speed="13.90" length="5.24" shape="1.65,93.45 1.96,95.59 2.87,97.12 4.41,98.04 6.55,98.35"/>
    </edge>
    <edge id=":0/1_5" function="internal">
        <lane id=":0/1_5_0" index="0" speed="13.90" length="2.41" shape="1.65,93.45 0.83,94.69 0.00,95.10"/>
    </edge>
    <edge id=":0/1_7" function="internal">
        <lane id=":0/1_7_0" index="0" speed="13.90" length="2.41" shape="0.00,95.10 -0.82,94.69 -1.65,93.45"/>
    </edge>
    <edge id=":1/0_0" function="internal">
        <lane id=":1/0_0_0" index="0" speed="13.90" length="5.00" shape="95.05,8.05 94.86,6.69 94.27,5.72 93.31,5.14 91.95,4.95"/>
    </edge>
    <edge id=":1/0_1" function="internal">
        <lane id=":1/0_1_0" index="0" speed="13.90" length="15.64" shape="98.35,8.05 98.96,3.81 100.77,0.77 103.81,-1.04 108.05,-1.65"/>
    </edge>
    <edge id=":1/0_2" function="internal">
        <lane id=":1/0_2_0" index="0" speed="13.90" length="4.82" shape="98.35,8.05 99.18,6.81 100.00,6.40 100.83,6.81 101.65,8.05"/>
    </edge>
    <edge id=":1/0_3" function="internal">
        <lane id=":1/0_3_0" index="0" speed="13.90" length="5.00" shape="108.05,4.95 106.69,5.14 105.72,5.72 105.14,6.69 104.95,8.05"/>
    </edge>
    <edge id=":1/0_4" function="internal">
        <lane id=":1/0_4_0" index="0" speed="13.90" length="16.10" shape="108.05,4.95 103.27,4.95 100.00,4.95 96.73,4.95 91.95,4.95"/>
        <lane id=":1/0_4_1" index="1" speed="13.90" length="16.10" shape="108.05,1.65 103.27,1.65 100.00,1.65 96.73,1.65 91.95,1.65"/>
    </edge>
    <edge id=":1/0_6" function="internal">
        <lane id=":1/0_6_0" index="0" speed="13.90" length="2.41" shape="108.05,1.65 106.81,0.83 106.40,0.00"/>
    </edge>
    <edge id=":1/0_11" function="internal">
        <lane id=":1/0_11_0" index="0" speed="13.90" length="2.41" shape="106.40,0.00 106.81,-0.82 108.05,-1.65"/>
    </edge>
    <edge id=":1/0_7" function="internal">
        <lane id=":1/0_7_0" index="0" speed="13.90" length="16.10" shape="91.95,-4.95 96.73,-4.95 100.00,-4.95 103.27,-4.95 108.05,-4.95"/>
        <lane id=":1/0_7_1" index="1" speed="13.90" length="16.10" shape="91.95,-1.65 96.73,-1.65 100.00,-1.65 103.27,-1.65 108.05,-1.65"/>
    </edge>
    <edge id=":1/0_9" function="internal">
        <lane id=":1/0_9_0" index="0" speed="13.90" length="8.84" shape="91.95,-1.65 96.19,-1.04 99.22,0.77 99.75,1.65"/>
    </edge>
    <edge id=":1/0_10" function="internal">
        <lane id=":1/0_10_0" index="0" speed="13.90" length="2.41" shape="91.95,-1.65 93.19,-0.83 93.60,-0.00"/>
    </edge>
    <edge id=":1/0_12" function="internal">
        <lane id=":1/0_12_0" index="0" speed="13.90" length="6.80" shape="99.75,1.65 101.04,3.81 101.65,8.05"/>
    </edge>
    <edge id=":1/0_13" function="internal">
        <lane id=":1/0_13_0" index="0" speed="13.90" length="2.41" shape="93.60,-0.00 93.19,0.82 91.95,1.65"/>
    </edge>
    <edge id=":1/1_0" function="internal">
        <lane id=":1/1_0_0" index="0" speed="13.90" length="16.10" shape="108.05,104.95 103.27,104.95 100.00,104.95 96.73,104.95 91.95,104.95"/>
        <lane id=":1/1_0_1" index="1" speed="13.90" length="16.10" shape="108.05,101.65 103.27,101.65 100.00,101.65 96.73,101.65 91.95,101.65"/>
    </edge>
    <edge id=":1/1_2" function="internal">
        <lane id=":1/1_2_0" index="0" speed="13.90" length="8.84" shape="108.05,101.65 103.81,101.04 100.77,99.23 100.25,98.35"/>
    </edge>
    <edge id=":1/1_3" function="internal">
        <lane id=":1/1_3_0" index="0" speed="13.90" length="2.41" shape="108.05,101.65 106.81,100.82 106.40,100.00"/>
    </edge>
    <edge id=":1/1_11" function="internal">
        <lane id=":1/1_11_0" index="0" speed="13.90" length="6.80" shape="100.25,98.35 98.96,96.19 98.35,91.95"/>
    </edge>
    <edge id=":1/1_12" function="internal">
        <lane id=":1/1_12_0" index="0" speed="13.90" length="2.41" shape="106.40,100.00 106.81,99.17 108.05,98.35"/>
    </edge>
    <edge id=":1/1_4" function="internal">
        <lane id=":1/1_4_0" index="0" speed="13.90" length="5.00" shape="104.95,91.95 105.14,93.31 105.73,94.28 106.69,94.86 108.05,95.05"/>
    </edge>
    <edge id=":1/1_5" function="internal">
        <lane id=":1/1_5_0" index="0" speed="13.90" length="15.64" shape="101.65,91.95 101.04,96.19 99.23,99.22 96.19,101.04 91.95,101.65"/>
    </edge>
    <edge id=":1/1_6" function="internal">
        <lane id=":1/1_6_0" index="0" speed="13.90" length="4.82" shape="101.65,91.95 100.82,93.19 100.00,93.60 99.17,93.19 98.35,91.95"/>
    </edge>
    <edge id=":1/1_7" function="internal">
        <lane id=":1/1_7_0" index="0" speed="13.90" length="5.00" shape="91.95,95.05 93.31,94.86 94.28,94.27 94.86,93.31 95.05,91.95"/>
    </edge>
    <edge id=":1/1_8" function="internal">
        <lane id=":1/1_8_0" index="0" speed="13.90" length="16.10" shape="91.95,95.05 96.73,95.05 100.00,95.05 103.27,95.05 108.05,95.05"/>
        <lane id=":1/1_8_1" index="1" speed="13.90" length="16.10" shape="91.95,98.35 96.73,98.35 100.00,98.35 103.27,98.35 108.05,98.35"/>
    </edge>
    <edge id=":1/1_10" function="internal">
        <lane id=":1/1_10_0" index="0" speed="13.90" length="2.41" shape="91.95,98.35 93.19,99.18 93.60,100.00"/>
    </edge>
    <edge id=":1/1_13" function="internal">
        <lane id=":1/1_13_0" index="0" speed="13.90" length="2.41" shape="93.60,100.00 93.19,100.83 91.95,101.65"/>
    </edge>
    <edge id=":2/0_0" function="internal">
        <lane id=":2/0_0_0" index="0" speed="13.90" length="5.24" shape="195.05,6.55 194.95,5.85 194.65,5.35 194.15,5.05 193.45,4.95"/>
        <lane id=":2/0_0_1" index="1" speed="13.90" length="5.24" shape="198.35,6.55 198.04,4.41 197.12,2.87 195.59,1.96 193.45,1.65"/>
    </edge>
    <edge id=":2/0_2" function="internal">
        <lane id=":2/0_2_0" index="0" speed="13.90" length="2.41" shape="198.35,6.55 199.17,5.31 200.00,4.90"/>
    </edge>
    <edge id=":2/0_6" function="internal">
        <lane id=":2/0_6_0" index="0" speed="13.90" length="2.41" shape="200.00,4.90 200.82,5.31 201.65,6.55"/>
    </edge>
    <edge id=":2/0_3" function="internal">
        <lane id=":2/0_3_0" index="0" speed="13.90" length="15.89" shape="193.45,-4.95 198.48,-4.23 202.07,-2.08 204.23,1.52 204.95,6.55"/>
        <lane id=":2/0_3_1" index="1" speed="13.90" length="15.89" shape="193.45,-1.65 197.04,-1.14 199.60,0.40 201.14,2.96 201.65,6.55"/>
    </edge>
    <edge id=":2/0_5" function="internal">
        <lane id=":2/0_5_0" index="0" speed="13.90" length="2.41" shape="193.45,-1.65 194.69,-0.83 195.10,-0.00"/>
    </edge>
    <edge id=":2/0_7" function="internal">
        <lane id=":2/0_7_0" index="0" speed="13.90" length="2.41" shape="195.10,-0.00 194.69,0.82 193.45,1.65"/>
    </edge>
    <edge id=":2/1_0" function="internal">
        <lane id=":2/1_0_0" index="0" speed="13.90" length="15.89" shape="204.95,93.45 204.23,98.48 202.07,102.07 198.48,104.23 193.45,104.95"/>
        <lane id=":2/1_0_1" index="1" speed="13.90" length="15.89" shape="201.65,93.45 201.14,97.04 199.60,99.60 197.04,101.14 193.45,101.65"/>
    </edge>
    <edge id=":2/1_2" function="internal">
        <lane id=":2/1_2_0" index="0" speed="13.90" length="2.41" shape="201.65,93.45 200.83,94.69 200.00,95.10"/>
    </edge>
    <edge id=":2/1_6" function="internal">
        <lane id=":2/1_6_0" index="0" speed="13.90" length="2.41" shape="200.00,95.10 199.18,94.69 198.35,93.45"/>
    </edge>
    <edge id=":2/1_3" function="internal">
        <lane id=":2/1_3_0" index="0" speed="13.90" length="5.24" shape="193.45,95.05 194.15,94.95 194.65,94.65 194.95,94.15 195.05,93.45"/>
        <lane id=":2/1_3_1" index="1" speed="13.90" length="5.24" shape="193.45,98.35 195.59,98.04 197.12,97.12 198.04,95.59 198.35,93.45"/>
    </edge>
    <edge id=":2/1_5" function="internal">
        <lane id=":2/1_5_0" index="0" speed="13.90" length="2.41" shape="193.45,98.35 194.69,99.18 195.10,100.00"/>
    </edge>
    <edge id=":2/1_7" function="internal">
        <lane id=":2/1_7_0" index="0" speed="13.90" length="2.41" shape="195.10,100.00 194.69,100.83 193.45,101.65"/>
    </edge>

    <edge id="0/0to0/1" from="0/0" to="0/1" priority="-1">
        <lane id="0/0to0/1_0" index="0" speed="13.90" length="86.90" shape="4.95,6.55 4.95,93.45"/>
        <lane id="0/0to0/1_1" index="1" speed="13.90" length="86.90" shape="1.65,6.55 1.65,93.45"/>
    </edge>
    <edge id="0/0to1/0" from="0/0" to="1/0" priority="-1">
        <lane id="0/0to1/0_0" index="0" speed="13.90" length="85.40" shape="6.55,-4.95 91.95,-4.95"/>
        <lane id="0/0to1/0_1" index="1" speed="13.90" length="85.40" shape="6.55,-1.65 91.95,-1.65"/>
    </edge>
    <edge id="0/1to0/0" from="0/1" to="0/0" priority="-1">
        <lane id="0/1to0/0_0" index="0" speed="13.90" length="86.90" shape="-4.95,93.45 -4.95,6.55"/>
        <lane id="0/1to0/0_1" index="1" speed="13.90" length="86.90" shape="-1.65,93.45 -1.65,6.55"/>
    </edge>
    <edge id="0/1to1/1" from="0/1" to="1/1" priority="-1">
        <lane id="0/1to1/1_0" index="0" speed="13.90" length="85.40" shape="6.55,95.05 91.95,95.05"/>
        <lane id="0/1to1/1_1" index="1" speed="13.90" length="85.40" shape="6.55,98.35 91.95,98.35"/>
    </edge>
    <edge id="1/0to0/0" from="1/0" to="0/0" priority="-1">
        <lane id="1/0to0/0_0" index="0" speed="13.90" length="85.40" shape="91.95,4.95 6.55,4.95"/>
        <lane id="1/0to0/0_1" index="1" speed="13.90" length="85.40" shape="91.95,1.65 6.55,1.65"/>
    </edge>
    <edge id="1/0to1/1" from="1/0" to="1/1" priority="-1">
        <lane id="1/0to1/1_0" index="0" speed="13.90" length="83.90" shape="104.95,8.05 104.95,91.95"/>
        <lane id="1/0to1/1_1" index="1" speed="13.90" length="83.90" shape="101.65,8.05 101.65,91.95"/>
    </edge>
    <edge id="1/0to2/0" from="1/0" to="2/0" priority="-1">
        <lane id="1/0to2/0_0" index="0" speed="13.90" length="85.40" shape="108.05,-4.95 193.45,-4.95"/>
        <lane id="1/0to2/0_1" index="1" speed="13.90" length="85.40" shape="108.05,-1.65 193.45,-1.65"/>
    </edge>
    <edge id="1/1to0/1" from="1/1" to="0/1" priority="-1">
        <lane id="1/1to0/1_0" index="0" speed="13.90" length="85.40" shape="91.95,104.95 6.55,104.95"/>
        <lane id="1/1to0/1_1" index="1" speed="13.90" length="85.40" shape="91.95,101.65 6.55,101.65"/>
    </edge>
    <edge id="1/1to1/0" from="1/1" to="1/0" priority="-1">
        <lane id="1/1to1/0_0" index="0" speed="13.90" length="83.90" shape="95.05,91.95 95.05,8.05"/>
        <lane id="1/1to1/0_1" index="1" speed="13.90" length="83.90" shape="98.35,91.95 98.35,8.05"/>
    </edge>
    <edge id="1/1to2/1" from="1/1" to="2/1" priority="-1">
        <lane id="1/1to2/1_0" index="0" speed="13.90" length="85.40" shape="108.05,95.05 193.45,95.05"/>
        <lane id="1/1to2/1_1" index="1" speed="13.90" length="85.40" shape="108.05,98.35 193.45,98.35"/>
    </edge>
    <edge id="2/0to1/0" from="2/0" to="1/0" priority="-1">
        <lane id="2/0to1/0_0" index="0" speed="13.90" length="85.40" shape="193.45,4.95 108.05,4.95"/>
        <lane id="2/0to1/0_1" index="1" speed="13.90" length="85.40" shape="193.45,1.65 108.05,1.65"/>
    </edge>
    <edge id="2/0to2/1" from="2/0" to="2/1" priority="-1">
        <lane id="2/0to2/1_0" index="0" speed="13.90" length="86.90" shape="204.95,6.55 204.95,93.45"/>
        <lane id="2/0to2/1_1" index="1" speed="13.90" length="86.90" shape="201.65,6.55 201.65,93.45"/>
    </edge>
    <edge id="2/1to1/1" from="2/1" to="1/1" priority="-1">
        <lane id="2/1to1/1_0" index="0" speed="13.90" length="85.40" shape="193.45,104.95 108.05,104.95"/>
        <lane id="2/1to1/1_1" index="1" speed="13.90" length="85.40" shape="193.45,101.65 108.05,101.65"/>
    </edge>
    <edge id="2/1to2/0" from="2/1" to="2/0" priority="-1">
        <lane id="2/1to2/0_0" index="0" speed="13.90" length="86.90" shape="195.05,93.45 195.05,6.55"/>
        <lane id="2/1to2/0_1" index="1" speed="13.90" length="86.90" shape="198.35,93.45 198.35,6.55"/>
    </edge>

    <junction id="0/0" type="priority" x="0.00" y="0.00" incLanes="0/1to0/0_0 0/1to0/0_1 1/0to0/0_0 1/0to0/0_1" intLanes=":0/0_0_0 :0/0_0_1 :0/0_6_0 :0/0_3_0 :0/0_3_1 :0/0_7_0" shape="-6.55,6.55 6.55,6.55 6.55,-6.55">
        <request index="0" response="000000" foes="100000" cont="0"/>
        <request index="1" response="000000" foes="100000" cont="0"/>
        <request index="2" response="011000" foes="011000" cont="1"/>
        <request index="3" response="000000" foes="000100" cont="0"/>
        <request index="4" response="000000" foes="000100" cont="0"/>
        <request index="5" response="000011" foes="000011" cont="1"/>
    </junction>
    <junction id="0/1" type="priority" x="0.00" y="100.00" incLanes="1/1to0/1_0 1/1to0/1_1 0/0to0/1_0 0/0to0/1_1" intLanes=":0/1_0_0 :0/1_0_1 :0/1_6_0 :0/1_3_0 :0/1_3_1 :0/1_7_0" shape="6.55,106.55 6.55,93.45 -6.55,93.45">
        <request index="0" response="000000" foes="100000" cont="0"/>
        <request index="1" response="000001" foes="100001" cont="0"/>
        <request index="2" response="011000" foes="011000" cont="1"/>
        <request index="3" response="000000" foes="000100" cont="0"/>
        <request index="4" response="000000" foes="000100" cont="0"/>
        <request index="5" response="000011" foes="000011" cont="1"/>
    </junction>
    <junction id="1/0" type="priority" x="100.00" y="0.00" incLanes="1/1to1/0_0 1/1to1/0_1 2/0to1/0_0 2/0to1/0_1 0/0to1/0_0 0/0to1/0_1" intLanes=":1/0_0_0 :1/0_1_0 :1/0_2_0 :1/0_3_0 :1/0_4_0 :1/0_4_1 :1/0_11_0 :1/0_7_0 :1/0_7_1 :1/0_12_0 :1/0_13_0" shape="93.45,8.05 106.55,8.05 108.05,6.55 108.05,-6.55 91.95,-6.55 91.95,6.55">
        <request index="0" response="00000110000" foes="10000110000" cont="0"/>
        <request index="1" response="01110110000" foes="01111110000" cont="0"/>
        <request index="2" response="01000001000" foes="01000001000" cont="0"/>
        <request index="3" response="00000000000" foes="01000000100" cont="0"/>
        <request index="4" response="00000000000" foes="11000000011" cont="0"/>
        <request index="5" response="00000010000" foes="11000010011" cont="0"/>
        <request index="6" response="00110000010" foes="00110000010" cont="1"/>
        <request index="7" response="00000000000" foes="00001000010" cont="0"/>
        <request index="8" response="00000000000" foes="00001000010" cont="0"/>
        <request index="9" response="00000111000" foes="00000111110" cont="1"/>
        <request index="10" response="00000110001" foes="00000110001" cont="1"/>
    </junction>
    <junction id="1/1" type="priority" x="100.00" y="100.00" incLanes="2/1to1/1_0 2/1to1/1_1 1/0to1/1_0 1/0to1/1_1 0/1to1/1_0 0/1to1/1_1" intLanes=":1/1_0_0 :1/1_0_1 :1/1_11_0 :1/1_12_0 :1/1_4_0 :1/1_5_0 :1/1_6_0 :1/1_7_0 :1/1_8_0 :1/1_8_1 :1/1_13_0" shape="108.05,106.55 108.05,93.45 106.55,91.95 93.45,91.95 91.95,93.45 91.95,106.55">
        <request index="0" response="00000000000" foes="10000100000" cont="0"/>
        <request index="1" response="00000000000" foes="10000100000" cont="0"/>
        <request index="2" response="01110000000" foes="01111100000" cont="1"/>
        <request index="3" response="01100010000" foes="01100010000" cont="1"/>
        <request index="4" response="01100000000" foes="01100001000" cont="0"/>
        <request index="5" response="01100000111" foes="11100000111" cont="0"/>
        <request index="6" response="00010000100" foes="00010000100" cont="0"/>
        <request index="7" response="00000000000" foes="00001000100" cont="0"/>
        <request index="8" response="00000000000" foes="00000111100" cont="0"/>
        <request index="9" response="00000000000" foes="00000111100" cont="0"/>
        <request index="10" response="00000100011" foes="00000100011" cont="1"/>
    </junction>
    <junction id="2/0" type="priority" x="200.00" y="0.00" incLanes="2/1to2/0_0 2/1to2/0_1 1/0to2/0_0 1/0to2/0_1" intLanes=":2/0_0_0 :2/0_0_1 :2/0_6_0 :2/0_3_0 :2/0_3_1 :2/0_7_0" shape="193.45,6.55 206.55,6.55 193.45,-6.55 193.45,6.55">
        <request index="0" response="000000" foes="100000" cont="0"/>
        <request index="1" response="000000" foes="100000" cont="0"/>
        <request index="2" response="011000" foes="011000" cont="1"/>
        <request index="3" response="000000" foes="000100" cont="0"/>
        <request index="4" response="000000" foes="000100" cont="0"/>
        <request index="5" response="000011" foes="000011" cont="1"/>
    </junction>
    <junction id="2/1" type="priority" x="200.00" y="100.00" incLanes="2/0to2/1_0 2/0to2/1_1 1/1to2/1_0 1/1to2/1_1" intLanes=":2/1_0_0 :2/1_0_1 :2/1_6_0 :2/1_3_0 :2/1_3_1 :2/1_7_0" shape="206.55,93.45 193.45,93.45 193.45,106.55">
        <request index="0" response="000000" foes="100000" cont="0"/>
        <request index="1" response="000000" foes="100000" cont="0"/>
        <request index="2" response="011000" foes="011000" cont="1"/>
        <request index="3" response="000000" foes="000100" cont="0"/>
        <request index="4" response="000000" foes="000100" cont="0"/>
        <request index="5" response="000011" foes="000011" cont="1"/>
    </junction>

    <junction id=":0/0_6_0" type="internal" x="-0.00" y="4.90" incLanes=":0/0_2_0 1/0to0/0_0 1/0to0/0_1" intLanes=":0/0_3_0 :0/0_3_1"/>
    <junction id=":0/0_7_0" type="internal" x="4.90" y="0.00" incLanes=":0/0_5_0 0/1to0/0_0 0/1to0/0_1" intLanes=":0/0_0_0 :0/0_0_1"/>
    <junction id=":0/1_6_0" type="internal" x="4.90" y="100.00" incLanes=":0/1_2_0 0/0to0/1_0 0/0to0/1_1" intLanes=":0/1_3_0 :0/1_3_1"/>
    <junction id=":0/1_7_0" type="internal" x="0.00" y="95.10" incLanes=":0/1_5_0 1/1to0/1_0 1/1to0/1_1" intLanes=":0/1_0_0 :0/1_0_1"/>
    <junction id=":1/0_11_0" type="internal" x="106.40" y="0.00" incLanes=":1/0_6_0 0/0to1/0_0 0/0to1/0_1 1/1to1/0_1" intLanes=":1/0_1_0 :1/0_7_0 :1/0_7_1"/>
    <junction id=":1/0_12_0" type="internal" x="99.75" y="1.65" incLanes=":1/0_9_0 2/0to1/0_0 2/0to1/0_1" intLanes=":1/0_1_0 :1/0_2_0 :1/0_3_0 :1/0_4_0 :1/0_4_1"/>
    <junction id=":1/0_13_0" type="internal" x="93.60" y="-0.00" incLanes=":1/0_10_0 1/1to1/0_0 2/0to1/0_0 2/0to1/0_1" intLanes=":1/0_0_0 :1/0_4_0 :1/0_4_1"/>
    <junction id=":1/1_11_0" type="internal" x="100.25" y="98.35" incLanes=":1/1_2_0 0/1to1/1_0 0/1to1/1_1" intLanes=":1/1_5_0 :1/1_6_0 :1/1_7_0 :1/1_8_0 :1/1_8_1"/>
    <junction id=":1/1_12_0" type="internal" x="106.40" y="100.00" incLanes=":1/1_3_0 0/1to1/1_0 0/1to1/1_1 1/0to1/1_0" intLanes=":1/1_4_0 :1/1_8_0 :1/1_8_1"/>
    <junction id=":1/1_13_0" type="internal" x="93.60" y="100.00" incLanes=":1/1_10_0 1/0to1/1_1 2/1to1/1_0 2/1to1/1_1" intLanes=":1/1_0_0 :1/1_0_1 :1/1_5_0"/>
    <junction id=":2/0_6_0" type="internal" x="200.00" y="4.90" incLanes=":2/0_2_0 1/0to2/0_0 1/0to2/0_1" intLanes=":2/0_3_0 :2/0_3_1"/>
    <junction id=":2/0_7_0" type="internal" x="195.10" y="-0.00" incLanes=":2/0_5_0 2/1to2/0_0 2/1to2/0_1" intLanes=":2/0_0_0 :2/0_0_1"/>
    <junction id=":2/1_6_0" type="internal" x="200.00" y="95.10" incLanes=":2/1_2_0 1/1to2/1_0 1/1to2/1_1" intLanes=":2/1_3_0 :2/1_3_1"/>
    <junction id=":2/1_7_0" type="internal" x="195.10" y="100.00" incLanes=":2/1_5_0 2/0to2/1_0 2/0to2/1_1" intLanes=":2/1_0_0 :2/1_0_1"/>

    <connection from="0/0to0/1" to="0/1to1/1" fromLane="0" toLane="0" via=":0/1_3_0" dir="r" state="M"/>
    <connection from="0/0to0/1" to="0/1to1/1" fromLane="1" toLane="1" via=":0/1_3_1" dir="r" state="M"/>
    <connection from="0/0to0/1" to="0/1to0/0" fromLane="1" toLane="1" via=":0/1_5_0" dir="t" state="m"/>
    <connection from="0/0to1/0" to="1/0to2/0" fromLane="0" toLane="0" via=":1/0_7_0" dir="s" state="M"/>
    <connection from="0/0to1/0" to="1/0to2/0" fromLane="1" toLane="1" via=":1/0_7_1" dir="s" state="M"/>
    <connection from="0/0to1/0" to="1/0to1/1" fromLane="1" toLane="1" via=":1/0_9_0" dir="l" state="m"/>
    <connection from="0/0to1/0" to="1/0to0/0" fromLane="1" toLane="1" via=":1/0_10_0" dir="t" state="m"/>
    <connection from="0/1to0/0" to="0/0to1/0" fromLane="0" toLane="0" via=":0/0_0_0" dir="l" state="M"/>
    <connection from="0/1to0/0" to="0/0to1/0" fromLane="1" toLane="1" via=":0/0_0_1" dir="l" state="M"/>
    <connection from="0/1to0/0" to="0/0to0/1" fromLane="1" toLane="1" via=":0/0_2_0" dir="t" state="m"/>
    <connection from="0/1to1/1" to="1/1to1/0" fromLane="0" toLane="0" via=":1/1_7_0" dir="r" state="M"/>
    <connection from="0/1to1/1" to="1/1to2/1" fromLane="0" toLane="0" via=":1/1_8_0" dir="s" state="M"/>
    <connection from="0/1to1/1" to="1/1to2/1" fromLane="1" toLane="1" via=":1/1_8_1" dir="s" state="M"/>
    <connection from="0/1to1/1" to="1/1to0/1" fromLane="1" toLane="1" via=":1/1_10_0" dir="t" state="m"/>
    <connection from="1/0to0/0" to="0/0to0/1" fromLane="0" toLane="0" via=":0/0_3_0" dir="r" state="M"/>
    <connection from="1/0to0/0" to="0/0to0/1" fromLane="1" toLane="1" via=":0/0_3_1" dir="r" state="M"/>
    <connection from="1/0to0/0" to="0/0to1/0" fromLane="1" toLane="1" via=":0/0_5_0" dir="t" state="m"/>
    <connection from="1/0to1/1" to="1/1to2/1" fromLane="0" toLane="0" via=":1/1_4_0" dir="r" state="m"/>
    <connection from="1/0to1/1" to="1/1to0/1" fromLane="1" toLane="1" via=":1/1_5_0" dir="l" state="m"/>
    <connection from="1/0to1/1" to="1/1to1/0" fromLane="1" toLane="1" via=":1/1_6_0" dir="t" state="m"/>
    <connection from="1/0to2/0" to="2/0to2/1" fromLane="0" toLane="0" via=":2/0_3_0" dir="l" state="M"/>
    <connection from="1/0to2/0" to="2/0to2/1" fromLane="1" toLane="1" via=":2/0_3_1" dir="l" state="M"/>
    <connection from="1/0to2/0" to="2/0to1/0" fromLane="1" toLane="1" via=":2/0_5_0" dir="t" state="m"/>
    <connection from="1/1to0/1" to="0/1to0/0" fromLane="0" toLane="0" via=":0/1_0_0" dir="l" state="M"/>
    <connection from="1/1to0/1" to="0/1to0/0" fromLane="1" toLane="1" via=":0/1_0_1" dir="l" state="M"/>
    <connection from="1/1to0/1" to="0/1to1/1" fromLane="1" toLane="1" via=":0/1_2_0" dir="t" state="m"/>
    <connection from="1/1to1/0" to="1/0to0/0" fromLane="0" toLane="0" via=":1/0_0_0" dir="r" state="m"/>
    <connection from="1/1to1/0" to="1/0to2/0" fromLane="1" toLane="1" via=":1/0_1_0" dir="l" state="m"/>
    <connection from="1/1to1/0" to="1/0to1/1" fromLane="1" toLane="1" via=":1/0_2_0" dir="t" state="m"/>
    <connection from="1/1to2/1" to="2/1to2/0" fromLane="0" toLane="0" via=":2/1_3_0" dir="r" state="M"/>
    <connection from="1/1to2/1" to="2/1to2/0" fromLane="1" toLane="1" via=":2/1_3_1" dir="r" state="M"/>
    <connection from="1/1to2/1" to="2/1to1/1" fromLane="1" toLane="1" via=":2/1_5_0" dir="t" state="m"/>
    <connection from="2/0to1/0" to="1/0to1/1" fromLane="0" toLane="0" via=":1/0_3_0" dir="r" state="M"/>
    <connection from="2/0to1/0" to="1/0to0/0" fromLane="0" toLane="0" via=":1/0_4_0" dir="s" state="M"/>
    <connection from="2/0to1/0" to="1/0to0/0" fromLane="1" toLane="1" via=":1/0_4_1" dir="s" state="M"/>
    <connection from="2/0to1/0" to="1/0to2/0" fromLane="1" toLane="1" via=":1/0_6_0" dir="t" state="m"/>
    <connection from="2/0to2/1" to="2/1to1/1" fromLane="0" toLane="0" via=":2/1_0_0" dir="l" state="M"/>
    <connection from="2/0to2/1" to="2/1to1/1" fromLane="1" toLane="1" via=":2/1_0_1" dir="l" state="M"/>
    <connection from="2/0to2/1" to="2/1to2/0" fromLane="1" toLane="1" via=":2/1_2_0" dir="t" state="m"/>
    <connection from="2/1to1/1" to="1/1to0/1" fromLane="0" toLane="0" via=":1/1_0_0" dir="s" state="M"/>
    <connection from="2/1to1/1" to="1/1to0/1" fromLane="1" toLane="1" via=":1/1_0_1" dir="s" state="M"/>
    <connection from="2/1to1/1" to="1/1to1/0" fromLane="1" toLane="1" via=":1/1_2_0" dir="l" state="m"/>
    <connection from="2/1to1/1" to="1/1to2/1" fromLane="1" toLane="1" via=":1/1_3_0" dir="t" state="m"/>
    <connection from="2/1to2/0" to="2/0to1/0" fromLane="0" toLane="0" via=":2/0_0_0" dir="r" state="M"/>
    <connection from="2/1to2/0" to="2/0to1/0" fromLane="1" toLane="1" via=":2/0_0_1" dir="r" state="M"/>
    <connection from="2/1to2/0" to="2/0to2/1" fromLane="1" toLane="1" via=":2/0_2_0" dir="t" state="m"/>

    <connection from=":0/0_0" to="0/0to1/0" fromLane="0" toLane="0" dir="s" state="M"/>
    <connection from=":0/0_0" to="0/0to1/0" fromLane="1" toLane="1" dir="s" state="M"/>
    <connection from=":0/0_2" to="0/0to0/1" fromLane="0" toLane="1" via=":0/0_6_0" dir="s" state="m"/>
    <connection from=":0/0_6" to="0/0to0/1" fromLane="0" toLane="1" dir="s" state="M"/>
    <connection from=":0/0_3" to="0/0to0/1" fromLane="0" toLane="0" dir="s" state="M"/>
    <connection from=":0/0_3" to="0/0to0/1" fromLane="1" toLane="1" dir="s" state="M"/>
    <connection from=":0/0_5" to="0/0to1/0" fromLane="0" toLane="1" via=":0/0_7_0" dir="s" state="m"/>
    <connection from=":0/0_7" to="0/0to1/0" fromLane="0" toLane="1" dir="s" state="M"/>
    <connection from=":0/1_0" to="0/1to0/0" fromLane="0" toLane="0" dir="s" state="M"/>
    <connection from=":0/1_0" to="0/1to0/0" fromLane="1" toLane="1" dir="s" state="M"/>
    <connection from=":0/1_2" to="0/1to1/1" fromLane="0" toLane="1" via=":0/1_6_0" dir="s" state="m"/>
    <connection from=":0/1_6" to="0/1to1/1" fromLane="0" toLane="1" dir="s" state="M"/>
    <connection from=":0/1_3" to="0/1to1/1" fromLane="0" toLane="0" dir="s" state="M"/>
    <connection from=":0/1_3" to="0/1to1/1" fromLane="1" toLane="1" dir="s" state="M"/>
    <connection from=":0/1_5" to="0/1to0/0" fromLane="0" toLane="1" via=":0/1_7_0" dir="s" state="m"/>
    <connection from=":0/1_7" to="0/1to0/0" fromLane="0" toLane="1" dir="s" state="M"/>
    <connection from=":1/0_0" to="1/0to0/0" fromLane="0" toLane="0" dir="s" state="M"/>
    <connection from=":1/0_1" to="1/0to2/0" fromLane="0" toLane="1" dir="s" state="M"/>
    <connection from=":1/0_2" to="1/0to1/1" fromLane="0" toLane="1" dir="s" state="M"/>
    <connection from=":1/0_3" to="1/0to1/1" fromLane="0" toLane="0" dir="s" state="M"/>
    <connection from=":1/0_4" to="1/0to0/0" fromLane="0" toLane="0" dir="s" state="M"/>
    <connection from=":1/0_4" to="1/0to0/0" fromLane="1" toLane="1" dir="s" state="M"/>
    <connection from=":1/0_6" to="1/0to2/0" fromLane="0" toLane="1" via=":1/0_11_0" dir="s" state="m"/>
    <connection from=":1/0_11" to="1/0to2/0" fromLane="0" toLane="1" dir="s" state="M"/>
    <connection from=":1/0_7" to="1/0to2/0" fromLane="0" toLane="0" dir="s" state="M"/>
    <connection from=":1/0_7" to="1/0to2/0" fromLane="1" toLane="1" dir="s" state="M"/>
    <connection from=":1/0_9" to="1/0to1/1" fromLane="0" toLane="1" via=":1/0_12_0" dir="s" state="m"/>
    <connection from=":1/0_12" to="1/0to1/1" fromLane="0" toLane="1" dir="s" state="M"/>
    <connection from=":1/0_10" to="1/0to0/0" fromLane="0" toLane="1" via=":1/0_13_0" dir="s" state="m"/>
    <connection from=":1/0_13" to="1/0to0/0" fromLane="0" toLane="1" dir="s" state="M"/>
    <connection from=":1/1_0" to="1/1to0/1" fromLane="0" toLane="0" dir="s" state="M"/>