<?xml version="1.0"?>
<!--
50 Cars leaving the west part of the grid
-->
<routes>
    <vType id="vtype0" accel="2.6" decel="4.5" sigma="0.5" length="2.5" minGap="2.5" maxSpeed="14" color="1,1,0"/>
    <route id="route0" edges="0/1to1/1 1/1to2/1 2/1to2/0 2/0to1/0 1/0to0/0 0/0to0/1"/>
    <flow id="flow0" type="vtype0" route="route0" begin="0" period="3" number="150"/>
</routes>
