<routes>

    <route id="route0" edges="0/3to1/3 1/3to1/2 1/2to1/1 1/1to2/1 2/1to3/1 3/1to4/1 4/1to4/0 4/0to3/0 3/0to2/0 2/0to2/1 2/1to2/2 2/2to2/3 2/3to3/3 3/3to3/2 3/2to2/2 2/2to1/2 1/2to0/2 0/2to0/1 0/1to1/1 1/1to1/2 1/2to2/2 2/2to2/1 2/1to2/0 2/0to3/0 3/0to3/1 3/1to2/1 2/1to2/2 2/2to2/3 2/3to3/3 3/3to4/3 4/3to4/2 4/2to3/2 3/2to2/2 2/2to1/2 1/2to1/1 1/1to0/1 0/1to0/2 0/2to1/2 1/2to1/1 1/1to0/1 0/1to0/0 0/0to1/0 1/0to1/1 1/1to1/2 1/2to1/3 1/3to1/4 1/4to2/4 2/4to3/4 3/4to4/4 4/4to4/3 4/3to3/3 3/3to2/3 2/3to2/2 2/2to2/1 2/1to1/1 1/1to1/2 1/2to2/2 2/2to3/2 3/2to3/3 3/3to2/3 2/3to1/3 1/3to1/2 1/2to1/1 1/1to1/0 1/0to0/0 0/0to0/1 0/1to1/1 1/1to2/1 2/1to2/0 2/0to1/0 1/0to1/1 1/1to1/2 1/2to2/2 2/2to3/2 3/2to3/1 3/1to2/1 2/1to1/1 1/1to1/2 1/2to2/2 2/2to3/2 3/2to4/2 4/2to4/3 4/3to3/3 3/3to3/2 3/2to3/1 3/1to4/1 4/1to4/2 4/2to3/2 3/2to2/2 2/2to1/2 1/2to0/2 0/2to0/1 0/1to0/0 0/0to1/0 1/0to1/1 1/1to1/2 1/2to1/3 1/3to2/3 2/3to2/2 2/2to3/2 3/2to4/2 4/2to4/3 4/3to3/3 3/3to2/3 2/3to1/3 1/3to1/4 1/4to2/4 2/4to2/3 2/3to1/3 1/3to1/2 1/2to1/1 1/1to1/0 1/0to2/0 2/0to3/0 3/0to3/1 3/1to2/1 2/1to1/1 1/1to0/1 0/1to0/0 0/0to1/0 1/0to2/0 2/0to2/1 2/1to1/1 1/1to1/0 1/0to2/0 2/0to3/0 3/0to3/1 3/1to2/1 2/1to2/0 2/0to1/0 1/0to1/1 1/1to1/2 1/2to2/2 2/2to2/1 2/1to1/1 1/1to1/2 1/2to0/2 0/2to0/1 0/1to1/1 1/1to1/0 1/0to2/0 2/0to2/1 2/1to2/2 2/2to2/3 2/3to1/3 1/3to1/2 1/2to2/2 2/2to2/1 2/1to1/1 1/1to0/1 0/1to0/0 0/0to1/0 1/0to1/1 1/1to2/1 2/1to3/1 3/1to4/1 4/1to4/0 4/0to3/0 3/0to2/0 2/0to2/1 2/1to2/2 2/2to2/3 2/3to2/4 2/4to3/4 3/4to3/3 3/3to3/2 3/2to3/1 3/1to3/0 3/0to4/0 4/0to4/1 4/1to3/1 3/1to2/1 2/1to2/0 2/0to1/0 1/0to1/1 1/1to1/2 1/2to1/3 1/3to1/4 1/4to2/4 2/4to3/4 3/4to4/4 4/4to4/3 4/3to3/3 3/3to3/2 3/2to3/1 3/1to3/0 3/0to4/0 4/0to4/1 4/1to3/1 3/1to2/1 2/1to1/1 1/1to0/1 0/1to0/2 0/2to0/3 0/3to0/4 0/4to1/4 1/4to2/4 2/4to2/3 2/3to1/3 1/3to1/4 1/4to2/4 2/4to2/3 2/3to2/2 2/2to3/2 3/2to3/1 3/1to4/1 4/1to4/2 4/2to3/2 3/2to2/2 2/2to2/1 2/1to3/1 3/1to3/2 3/2to4/2 4/2to4/3 4/3to3/3 3/3to2/3 2/3to2/2 2/2to2/1 2/1to2/0 2/0to3/0 3/0to3/1 3/1to3/2 3/2to3/3 3/3to3/4 3/4to4/4 4/4to4/3 4/3to3/3 3/3to3/2 3/2to3/1 3/1to3/0 3/0to2/0 2/0to1/0 1/0to1/1 1/1to1/2 1/2to1/3 1/3to0/3 0/3to0/4 0/4to1/4 1/4to2/4 2/4to2/3 2/3to2/2 2/2to2/1 2/1to3/1 3/1to4/1 4/1to4/0 4/0to3/0 3/0to2/0 2/0to2/1 2/1to2/2 2/2to2/3 2/3to1/3 1/3to1/4 1/4to2/4 2/4to2/3 2/3to1/3 1/3to0/3 0/3to0/2 0/2to0/1 0/1to0/0 0/0to1/0 1/0to1/1 1/1to2/1 2/1to2/2 2/2to2/3 2/3to3/3 3/3to4/3 4/3to4/2 4/2to3/2 3/2to2/2 2/2to2/1 2/1to2/0 2/0to3/0 3/0to3/1 3/1to2/1 2/1to1/1 1/1to1/0 1/0to0/0 0/0to0/1 0/1to0/2 0/2to0/3 0/3to1/3 1/3to2/3 2/3to2/2 2/2to2/1 2/1to3/1 3/1to3/2 3/2to2/2 2/2to2/1 2/1to3/1 3/1to3/0 3/0to2/0 2/0to2/1 2/1to2/2 2/2to2/3 2/3to2/4 2/4to1/4 1/4to1/3 1/3to1/2 1/2to1/1 1/1to2/1 2/1to2/0 2/0to1/0 1/0to1/1 1/1to1/2 1/2to2/2 2/2to2/3 2/3to3/3 3/3to3/4 3/4to2/4 2/4to2/3 2/3to2/2 2/2to3/2 3/2to3/1 3/1to2/1 2/1to2/0 2/0to1/0 1/0to1/1 1/1to1/2 1/2to2/2 2/2to2/1 2/1to1/1 1/1to0/1 0/1to0/0 0/0to1/0 1/0to1/1 1/1to0/1 0/1to0/2 0/2to1/2 1/2to1/1 1/1to2/1 2/1to3/1 3/1to3/2 3/2to2/2 2/2to2/3 2/3to3/3 3/3to4/3 4/3to4/4 4/4to3/4 3/4to2/4 2/4to2/3 2/3to2/2 2/2to2/1 2/1to2/0 2/0to1/0 1/0to0/0 0/0to0/1 0/1to0/2 0/2to1/2 1/2to2/2 2/2to2/3 2/3to3/3 3/3to4/3 4/3to4/4 4/4to3/4 3/4to3/3 3/3to3/2 3/2to2/2 2/2to1/2 1/2to1/3 1/3to2/3 2/3to2/2 2/2to2/1 2/1to2/0 2/0to3/0 3/0to4/0 4/0to4/1 4/1to3/1 3/1to2/1 2/1to1/1 1/1to1/2 1/2to2/2 2/2to3/2 3/2to3/3 3/3to4/3 4/3to4/2 4/2to3/2 3/2to2/2 2/2to2/3 2/3to2/4 2/4to1/4 1/4to1/3 1/3to1/2 1/2to1/1 1/1to2/1 2/1to2/2 2/2to1/2 1/2to1/1 1/1to0/1 0/1to0/2 0/2to0/3 0/3to1/3 1/3to2/3 2/3to2/2 2/2to3/2 3/2to3/3 3/3to4/3 4/3to4/2 4/2to3/2 3/2to2/2 2/2to1/2 1/2to1/1 1/1to1/0 1/0to0/0 0/0to0/1 0/1to0/2 0/2to0/3 0/3to1/3 1/3to2/3 2/3to3/3 3/3to3/4 3/4to2/4 2/4to2/3 2/3to1/3 1/3to1/4 1/4to2/4 2/4to3/4 3/4to3/3 3/3to3/2 3/2to3/1 3/1to4/1 4/1to4/0 4/0to3/0 3/0to3/1 3/1to3/2 3/2to4/2 4/2to4/3 4/3to3/3 3/3to3/4 3/4to2/4 2/4to2/3 2/3to2/2 2/2to3/2 3/2to3/3 3/3to2/3 2/3to2/4 2/4to1/4 1/4to1/3 1/3to1/2 1/2to2/2 2/2to2/1 2/1to1/1 1/1to1/2 1/2to0/2 0/2to0/1 0/1to1/1 1/1to1/2 1/2to2/2 2/2to3/2 3/2to4/2 4/2to4/1 4/1to3/1"/>
    <route id="route1" edges="4/1to4/2 4/2to3/2 3/2to2/2 2/2to1/2 1/2to0/2 0/2to0/1 0/1to0/0 0/0to1/0 1/0to1/1 1/1to0/1 0/1to0/2 0/2to0/3 0/3to1/3 1/3to1/4 1/4to2/4 2/4to2/3 2/3to3/3 3/3to4/3 4/3to4/4 4/4to3/4 3/4to2/4 2/4to2/3 2/3to3/3 3/3to3/4 3/4to2/4 2/4to1/4 1/4to1/3 1/3to2/3 2/3to2/2 2/2to1/2 1/2to1/1 1/1to1/0 1/0to2/0 2/0to2/1 2/1to3/1 3/1to3/0 3/0to2/0 2/0to2/1 2/1to3/1 3/1to4/1 4/1to4/0 4/0to3/0 3/0to3/1 3/1to3/2 3/2to4/2 4/2to4/3 4/3to3/3 3/3to2/3 2/3to2/2 2/2to1/2 1/2to1/3 1/3to2/3 2/3to2/2 2/2to2/1 2/1to3/1 3/1to4/1 4/1to4/0 4/0to3/0 3/0to3/1 3/1to3/2 3/2to2/2 2/2to1/2 1/2to1/3 1/3to2/3 2/3to3/3 3/3to4/3 4/3to4/4 4/4to3/4 3/4to2/4 2/4to2/3 2/3to2/2 2/2to2/1 2/1to1/1 1/1to1/2 1/2to2/2 2/2to3/2 3/2to3/3 3/3to2/3 2/3to1/3 1/3to1/2 1/2to0/2 0/2to0/3 0/3to1/3 1/3to1/2 1/2to1/1 1/1to1/0 1/0to0/0 0/0to0/1 0/1to1/1 1/1to2/1 2/1to3/1 3/1to4/1 4/1to4/2 4/2to3/2 3/2to2/2 2/2to1/2 1/2to1/1 1/1to1/0 1/0to2/0 2/0to2/1 2/1to2/2 2/2to3/2 3/2to3/3 3/3to2/3 2/3to2/4 2/4to3/4 3/4to3/3 3/3to3/2 3/2to3/1 3/1to4/1 4/1to4/0 4/0to3/0 3/0to2/0 2/0to2/1 2/1to2/2 2/2to2/3 2/3to2/4 2/4to1/4 1/4to1/3 1/3to2/3 2/3to2/2 2/2to2/1 2/1to1/1 1/1to1/2 1/2to2/2 2/2to3/2 3/2to4/2 4/2to4/1 4/1to3/1 3/1to2/1 2/1to2/2 2/2to2/3 2/3to2/4 2/4to3/4 3/4to3/3 3/3to4/3 4/3to4/2 4/2to4/1 4/1to4/0 4/0to3/0 3/0to2/0 2/0to1/0 1/0to1/1 1/1to0/1 0/1to0/2 0/2to0/3 0/3to1/3 1/3to2/3 2/3to2/4 2/4to1/4 1/4to1/3 1/3to0/3 0/3to0/2 0/2to1/2 1/2to1/1 1/1to0/1 0/1to0/2 0/2to1/2 1/2to1/3 1/3to0/3 0/3to0/2 0/2to0/1 0/1to1/1 1/1to1/2 1/2to2/2 2/2to3/2 3/2to4/2 4/2to4/1 4/1to3/1 3/1to3/2 3/2to3/3 3/3to4/3 4/3to4/2 4/2to3/2 3/2to3/3 3/3to3/4 3/4to4/4 4/4to4/3 4/3to3/3 3/3to2/3 2/3to2/2 2/2to1/2 1/2to1/3 1/3to2/3 2/3to2/2 2/2to2/1 2/1to3/1 3/1to3/0 3/0to2/0 2/0to2/1 2/1to2/2 2/2to2/3 2/3to3/3 3/3to3/4 3/4to2/4 2/4to2/3 2/3to1/3 1/3to1/4 1/4to2/4 2/4to2/3 2/3to3/3 3/3to3/2 3/2to2/2 2/2to1/2 1/2to1/1 1/1to1/0 1/0to0/0 0/0to0/1 0/1to0/2 0/2to0/3 0/3to1/3 1/3to1/2 1/2to1/1 1/1to2/1 2/1to3/1 3/1to4/1 4/1to4/2 4/2to3/2 3/2to2/2 2/2to2/3 2/3to3/3 3/3to3/2 3/2to4/2 4/2to4/3 4/3to3/3 3/3to3/2 3/2to3/1 3/1to2/1 2/1to2/2 2/2to1/2 1/2to1/3 1/3to2/3 2/3to3/3 3/3to3/4 3/4to4/4 4/4to4/3 4/3to3/3 3/3to2/3 2/3to1/3 1/3to1/2 1/2to1/1 1/1to1/0 1/0to0/0 0/0to0/1 0/1to1/1 1/1to2/1 2/1to3/1 3/1to3/0 3/0to2/0 2/0to1/0 1/0to1/1 1/1to0/1 0/1to0/2 0/2to1/2 1/2to1/3 1/3to0/3 0/3to0/4 0/4to1/4 1/4to1/3 1/3to1/2 1/2to1/1 1/1to2/1 2/1to3/1 3/1to4/1 4/1to4/0 4/0to3/0 3/0to2/0 2/0to1/0 1/0to1/1 1/1to0/1 0/1to0/2 0/2to1/2 1/2to1/1 1/1to2/1 2/1to2/2 2/2to2/3 2/3to2/4 2/4to3/4 3/4to4/4 4/4to4/3 4/3to3/3 3/3to2/3 2/3to2/2 2/2to2/1 2/1to2/0 2/0to3/0 3/0to3/1 3/1to2/1 2/1to1/1 1/1to0/1 0/1to0/2 0/2to0/3 0/3to0/4 0/4to1/4 1/4to1/3 1/3to1/2 1/2to1/1 1/1to1/0 1/0to0/0 0/0to0/1 0/1to1/1 1/1to2/1 2/1to2/2 2/2to3/2 3/2to4/2 4/2to4/3 4/3to3/3 3/3to2/3 2/3to1/3 1/3to0/3 0/3to0/2 0/2to0/1 0/1to1/1 1/1to2/1 2/1to3/1 3/1to4/1 4/1to4/2 4/2to3/2 3/2to2/2 2/2to1/2 1/2to1/3 1/3to1/4 1/4to2/4 2/4to2/3 2/3to3/3 3/3to4/3 4/3to4/4 4/4to3/4 3/4to3/3 3/3to4/3 4/3to4/2 4/2to3/2 3/2to2/2 2/2to2/1 2/1to1/1 1/1to1/2 1/2to2/2 2/2to2/1 2/1to1/1 1/1to1/2 1/2to0/2 0/2to0/1 0/1to1/1 1/1to2/1 2/1to2/2 2/2to1/2 1/2to1/3 1/3to0/3 0/3to0/2 0/2to1/2 1/2to2/2 2/2to3/2 3/2to3/1 3/1to2/1 2/1to1/1 1/1to0/1 0/1to0/2 0/2to1/2 1/2to1/1 1/1to1/0 1/0to0/0 0/0to0/1 0/1to0/2 0/2to0/3 0/3to1/3 1/3to2/3 2/3to3/3 3/3to4/3 4/3to4/4 4/4to3/4 3/4to2/4 2/4to1/4 1/4to1/3 1/3to1/2 1/2to2/2 2/2to2/3 2/3to1/3 1/3to1/4 1/4to2/4 2/4to2/3 2/3to2/2 2/2to2/1 2/1to2/0 2/0to1/0 1/0to1/1 1/1to0/1 0/1to0/2 0/2to0/3 0/3to1/3 1/3to1/2 1/2to0/2 0/2to0/1 0/1to1/1 1/1to1/2 1/2to2/2 2/2to3/2 3/2to4/2 4/2to4/1 4/1to3/1 3/1to3/2 3/2to3/3 3/3to4/3 4/3to4/4 4/4to3/4 3/4to2/4 2/4to1/4 1/4to1/3 1/3to0/3 0/3to0/2 0/2to0/1 0/1to1/1 1/1to1/0 1/0to2/0 2/0to2/1 2/1to3/1 3/1to3/0 3/0to2/0 2/0to2/1 2/1to2/2 2/2to2/3 2/3to3/3 3/3to4/3 4/3to4/4 4/4to3/4 3/4to2/4 2/4to2/3 2/3to2/2 2/2to2/1 2/1to3/1 3/1to4/1 4/1to4/2 4/2to3/2 3/2to3/1 3/1to2/1 2/1to1/1 1/1to1/2 1/2to0/2 0/2to0/3 0/3to1/3 1/3to2/3 2/3to2/2 2/2to1/2 1/2to1/3 1/3to0/3 0/3to0/2 0/2to0/1 0/1to1/1 1/1to2/1 2/1to2/2 2/2to1/2 1/2to0/2 0/2to0/3 0/3to1/3 1/3to2/3 2/3to2/2 2/2to1/2 1/2to1/3 1/3to2/3 2/3to3/3 3/3to4/3 4/3to4/4 4/4to3/4 3/4to2/4 2/4to2/3 2/3to2/2 2/2to2/1 2/1to2/0 2/0to3/0 3/0to3/1 3/1to2/1 2/1to2/0 2/0to3/0 3/0to4/0"/>
    <route id="route2" edges="0/1to0/2 0/2to1/2 1/2to1/3 1/3to0/3 0/3to0/2 0/2to0/1 0/1to1/1 1/1to1/2 1/2to2/2 2/2to2/3 2/3to3/3 3/3to3/2 3/2to3/1 3/1to4/1 4/1to4/0 4/0to3/0 3/0to2/0 2/0to1/0 1/0to1/1 1/1to0/1 0/1to0/2 0/2to0/3 0/3to0/4 0/4to1/4 1/4to1/3 1/3to2/3 2/3to3/3 3/3to3/2 3/2to3/1 3/1to4/1 4/1to4/0 4/0to3/0 3/0to2/0 2/0to1/0 1/0to1/1 1/1to1/2 1/2to1/3 1/3to0/3 0/3to0/2 0/2to0/1 0/1to1/1 1/1to2/1 2/1to3/1 3/1to4/1 4/1to4/0 4/0to3/0 3/0to2/0 2/0to2/1 2/1to2/2 2/2to2/3 2/3to2/4 2/4to1/4 1/4to1/3 1/3to2/3 2/3to3/3 3/3to3/2 3/2to2/2 2/2to2/1 2/1to3/1 3/1to3/2 3/2to3/3 3/3to3/4 3/4to2/4 2/4to2/3 2/3to2/2 2/2to2/1 2/1to2/0 2/0to3/0 3/0to4/0 4/0to4/1 4/1to4/2 4/2to3/2 3/2to3/3 3/3to4/3 4/3to4/2 4/2to3/2 3/2to2/2 2/2to2/3 2/3to3/3 3/3to3/2 3/2to2/2 2/2to2/1 2/1to2/0 2/0to1/0 1/0to1/1 1/1to1/2 1/2to0/2 0/2to0/1 0/1to1/1 1/1to1/0 1/0to2/0 2/0to2/1 2/1to2/2 2/2to2/3 2/3to3/3 3/3to4/3 4/3to4/2 4/2to3/2 3/2to3/3 3/3to2/3 2/3to1/3 1/3to0/3 0/3to0/2 0/2to0/1 0/1to1/1 1/1to2/1 2/1to3/1 3/1to3/2 3/2to3/3 3/3to2/3 2/3to2/2 2/2to3/2 3/2to3/1 3/1to2/1 2/1to1/1 1/1to1/2 1/2to1/3 1/3to2/3 2/3to2/2 2/2to3/2 3/2to3/1 3/1to2/1 2/1to1/1 1/1to1/0 1/0to0/0 0/0to0/1 0/1to0/2 0/2to1/2 1/2to2/2 2/2to3/2 3/2to3/3 3/3to2/3 2/3to1/3 1/3to1/2 1/2to1/1 1/1to0/1 0/1to0/2 0/2to0/3 0/3to1/3 1/3to2/3 2/3to3/3 3/3to4/3 4/3to4/4 4/4to3/4 3/4to2/4 2/4to2/3 2/3to2/2 2/2to2/1 2/1to2/0 2/0to3/0 3/0to3/1 3/1to2/1 2/1to2/2 2/2to1/2 1/2to1/1 1/1to2/1 2/1to2/2 2/2to3/2 3/2to4/2 4/2to4/1 4/1to3/1 3/1to3/2 3/2to3/3 3/3to4/3 4/3to4/2 4/2to3/2 3/2to2/2 2/2to1/2 1/2to1/3 1/3to1/4 1/4to0/4 0/4to0/3 0/3to1/3 1/3to2/3 2/3to3/3 3/3to3/4 3/4to4/4 4/4to4/3 4/3to4/2 4/2to4/1 4/1to4/0 4/0to3/0 3/0to3/1 3/1to2/1 2/1to2/0 2/0to3/0 3/0to3/1 3/1to3/2 3/2to2/2 2/2to2/1 2/1to2/0 2/0to3/0 3/0to3/1 3/1to3/2 3/2to4/2 4/2to4/1 4/1to3/1 3/1to3/2 3/2to3/3 3/3to4/3 4/3to4/4 4/4to3/4 3/4to2/4 2/4to2/3 2/3to1/3 1/3to1/4 1/4to2/4 2/4to2/3 2/3to3/3 3/3to3/4 3/4to2/4 2/4to2/3 2/3to2/2 2/2to2/1 2/1to1/1 1/1to1/0 1/0to0/0 0/0to0/1 0/1to0/2 0/2to0/3 0/3to1/3 1/3to1/4 1/4to0/4 0/4to0/3 0/3to1/3 1/3to2/3 2/3to3/3 3/3to4/3 4/3to4/2 4/2to3/2 3/2to3/3 3/3to4/3 4/3to4/2 4/2to3/2 3/2to2/2 2/2to1/2 1/2to0/2 0/2to0/3 0/3to0/4 0/4to1/4 1/4to2/4 2/4to3/4 3/4to3/3 3/3to3/2 3/2to3/1 3/1to3/0 3/0to2/0 2/0to2/1 2/1to1/1 1/1to0/1 0/1to0/2 0/2to0/3 0/3to0/4 0/4to1/4 1/4to1/3 1/3to1/2 1/2to2/2 2/2to2/1 2/1to2/0 2/0to1/0 1/0to1/1 1/1to2/1 2/1to2/2 2/2to3/2 3/2to4/2 4/2to4/1 4/1to3/1 3/1to2/1 2/1to1/1 1/1to1/0 1/0to0/0 0/0to0/1 0/1to1/1 1/1to1/0 1/0to2/0 2/0to3/0 3/0to3/1 3/1to2/1 2/1to2/0 2/0to1/0 1/0to1/1 1/1to0/1 0/1to0/0 0/0to1/0 1/0to2/0 2/0to3/0 3/0to3/1 3/1to2/1 2/1to2/2 2/2to2/3 2/3to2/4 2/4to3/4 3/4to4/4 4/4to4/3 4/3to3/3 3/3to2/3 2/3to1/3 1/3to1/2 1/2to1/1 1/1to0/1 0/1to0/2 0/2to1/2 1/2to1/3 1/3to2/3 2/3to2/2 2/2to1/2 1/2to1/1 1/1to2/1 2/1to2/2 2/2to2/3 2/3to2/4 2/4to1/4 1/4to1/3 1/3to1/2 1/2to0/2 0/2to0/1 0/1to1/1 1/1to2/1 2/1to3/1 3/1to3/2 3/2to3/3 3/3to4/3 4/3to4/4 4/4to3/4 3/4to2/4 2/4to2/3 2/3to3/3 3/3to4/3 4/3to4/4 4/4to3/4 3/4to2/4 2/4to2/3 2/3to2/2 2/2to2/1 2/1to2/0 2/0to3/0 3/0to4/0 4/0to4/1 4/1to4/2 4/2to4/3 4/3to3/3 3/3to3/2 3/2to2/2 2/2to2/3 2/3to3/3 3/3to3/2 3/2to2/2 2/2to1/2 1/2to1/3 1/3to1/4 1/4to2/4 2/4to2/3 2/3to2/2 2/2to1/2 1/2to1/3 1/3to0/3 0/3to0/2 0/2to1/2 1/2to1/3 1/3to2/3 2/3to3/3 3/3to3/4 3/4to2/4 2/4to1/4 1/4to1/3 1/3to0/3 0/3to0/4 0/4to1/4 1/4to1/3 1/3to1/2 1/2to2/2 2/2to3/2 3/2to4/2 4/2to4/3 4/3to3/3 3/3to2/3 2/3to2/2 2/2to3/2 3/2to3/3 3/3to4/3 4/3to4/4 4/4to3/4 3/4to3/3 3/3to2/3 2/3to2/2 2/2to3/2 3/2to3/3 3/3to4/3 4/3to4/4 4/4to3/4 3/4to2/4 2/4to1/4 1/4to0/4 0/4to0/3 0/3to1/3 1/3to1/2 1/2to2/2 2/2to2/3 2/3to3/3 3/3to3/2 3/2to2/2 2/2to1/2 1/2to1/3 1/3to0/3 0/3to0/2 0/2to1/2 1/2to2/2 2/2to2/3 2/3to1/3 1/3to1/4 1/4to0/4 0/4to0/3 0/3to0/2 0/2to1/2 1/2to2/2 2/2to2/3 2/3to1/3 1/3to1/2 1/2to1/1 1/1to1/0 1/0to0/0 0/0to0/1 0/1to1/1 1/1to2/1 2/1to2/0 2/0to1/0 1/0to1/1 1/1to1/2 1/2to1/3 1/3to0/3 0/3to0/2 0/2to0/1 0/1to1/1 1/1to2/1 2/1to2/0 2/0to1/0 1/0to1/1 1/1to1/2 1/2to1/3 1/3to2/3 2/3to3/3 3/3to3/4 3/4to2/4 2/4to2/3 2/3to2/2 2/2to2/1 2/1to3/1 3/1to3/2 3/2to2/2 2/2to2/1 2/1to2/0 2/0to3/0 3/0to4/0 4/0to4/1 4/1to3/1 3/1to2/1 2/1to1/1 1/1to1/2 1/2to1/3 1/3to1/4 1/4to2/4 2/4to2/3 2/3to1/3 1/3to1/2 1/2to1/1 1/1to0/1 0/1to0/2 0/2to1/2 1/2to1/1 1/1to1/0 1/0to0/0 0/0to0/1 0/1to0/2 0/2to1/2 1/2to1/3 1/3to1/4 1/4to2/4 2/4to2/3 2/3to2/2 2/2to2/1 2/1to3/1 3/1to4/1 4/1to4/0 4/0to3/0 3/0to3/1 3/1to3/2 3/2to3/3 3/3to3/4 3/4to4/4 4/4to4/3 4/3to3/3 3/3to3/2 3/2to2/2 2/2to2/3 2/3to3/3 3/3to4/3 4/3to4/4 4/4to3/4 3/4to3/3 3/3to3/2 3/2to3/1 3/1to2/1 2/1to2/2 2/2to2/3 2/3to2/4 2/4to3/4 3/4to4/4 4/4to4/3 4/3to3/3 3/3to3/2 3/2to3/1 3/1to3/0 3/0to2/0 2/0to2/1 2/1to2/2 2/2to3/2 3/2to4/2 4/2to4/3 4/3to3/3 3/3to3/4 3/4to4/4 4/4to4/3 4/3to3/3 3/3to2/3 2/3to1/3 1/3to0/3 0/3to0/2 0/2to0/1 0/1to1/1 1/1to1/0 1/0to0/0 0/0to0/1 0/1to1/1 1/1to2/1 2/1to3/1 3/1to3/0 3/0to2/0 2/0to2/1 2/1to2/2 2/2to2/3 2/3to1/3 1/3to1/4 1/4to0/4 0/4to0/3 0/3to0/2 0/2to0/1 0/1to1/1 1/1to1/0 1/0to0/0 0/0to0/1 0/1to1/1 1/1to2/1 2/1to2/0 2/0to1/0 1/0to1/1 1/1to1/2 1/2to2/2 2/2to2/1 2/1to1/1 1/1to1/0 1/0to2/0 2/0to2/1 2/1to3/1 3/1to3/0 3/0to4/0 4/0to4/1 4/1to3/1 3/1to2/1 2/1to2/2 2/2to2/3 2/3to2/4 2/4to1/4 1/4to1/3 1/3to1/2 1/2to2/2 2/2to3/2 3/2to3/3 3/3to2/3 2/3to2/2 2/2to2/1 2/1to3/1 3/1to4/1 4/1to4/2 4/2to4/3 4/3to3/3 3/3to3/2 3/2to4/2 4/2to4/3 4/3to3/3 3/3to2/3 2/3to2/2 2/2to2/1 2/1to3/1 3/1to3/2 3/2to4/2 4/2to4/1 4/1to3/1 3/1to3/0 3/0to4/0 4/0to4/1 4/1to3/1 3/1to2/1 2/1to2/0 2/0to3/0 3/0to3/1 3/1to2/1 2/1to1/1 1/1to1/0 1/0to2/0 2/0to2/1 2/1to1/1 1/1to1/0 1/0to2/0 2/0to3/0 3/0to3/1 3/1to3/2 3/2to4/2 4/2to4/3 4/3to3/3 3/3to3/4 3/4to4/4 4/4to4/3 4/3to4/2 4/2to4/1 4/1to4/0 4/0to3/0 3/0to2/0 2/0to2/1 2/1to2/2 2/2to2/3 2/3to3/3 3/3to3/2 3/2to2/2 2/2to2/3 2/3to2/4 2/4to3/4 3/4to3/3 3/3to2/3 2/3to2/4 2/4to3/4 3/4to3/3 3/3to2/3 2/3to2/2 2/2to1/2 1/2to1/3 1/3to2/3 2/3to2/2 2/2to1/2 1/2to1/1 1/1to2/1 2/1to3/1 3/1to3/2 3/2to2/2 2/2to2/1 2/1to3/1 3/1to3/2 3/2to4/2 4/2to4/1 4/1to3/1 3/1to3/2 3/2to3/3 3/3to2/3 2/3to2/2 2/2to1/2 1/2to0/2 0/2to0/3 0/3to0/4 0/4to1/4 1/4to2/4 2/4to3/4 3/4to4/4 4/4to4/3 4/3to3/3 3/3to2/3 2/3to2/2 2/2to1/2 1/2to1/1 1/1to2/1 2/1to3/1 3/1to3/0 3/0to2/0 2/0to1/0 1/0to1/1 1/1to0/1 0/1to0/2 0/2to1/2 1/2to2/2 2/2to2/3 2/3to3/3 3/3to3/2 3/2to4/2 4/2to4/1 4/1to3/1 3/1to2/1 2/1to2/0 2/0to3/0 3/0to3/1 3/1to2/1 2/1to1/1 1/1to1/2 1/2to1/3 1/3to1/4 1/4to0/4 0/4to0/3 0/3to0/2 0/2to1/2 1/2to2/2 2/2to3/2 3/2to3/1 3/1to2/1 2/1to1/1 1/1to0/1 0/1to0/0 0/0to1/0 1/0to1/1 1/1to1/2 1/2to2/2 2/2to2/3 2/3to3/3 3/3to3/2 3/2to4/2 4/2to4/3 4/3to3/3 3/3to3/2 3/2to3/1 3/1to4/1 4/1to4/0 4/0to3/0 3/0to2/0 2/0to2/1 2/1to3/1 3/1to4/1 4/1to4/2 4/2to3/2 3/2to2/2 2/2to2/3 2/3to2/4 2/4to3/4 3/4to3/3 3/3to2/3 2/3to1/3 1/3to1/2 1/2to1/1 1/1to0/1 0/1to0/2 0/2to1/2 1/2to1/1 1/1to2/1 2/1to3/1 3/1to4/1 4/1to4/0 4/0to3/0 3/0to2/0 2/0to2/1 2/1to2/2 2/2to1/2 1/2to1/1 1/1to2/1 2/1to2/2 2/2to1/2 1/2to0/2 0/2to0/1 0/1to1/1 1/1to1/2 1/2to1/3 1/3to1/4 1/4to2/4 2/4to3/4 3/4to4/4 4/4to4/3 4/3to3/3 3/3to2/3 2/3to2/2 2/2to3/2 3/2to3/3 3/3to2/3 2/3to2/4 2/4to1/4 1/4to1/3 1/3to1/2 1/2to2/2 2/2to2/3 2/3to1/3 1/3to1/2 1/2to2/2 2/2to3/2 3/2to3/3 3/3to2/3 2/3to1/3 1/3to1/2 1/2to1/1 1/1to1/0 1/0to0/0 0/0to0/1 0/1to1/1 1/1to1/0 1/0to2/0 2/0to3/0 3/0to3/1 3/1to2/1 2/1to2/2 2/2to3/2 3/2to3/1 3/1to2/1 2/1to2/2 2/2to2/3 2/3to2/4 2/4to3/4 3/4to3/3 3/3to2/3 2/3to1/3 1/3to1/2 1/2to1/1 1/1to2/1 2/1to2/2 2/2to2/3 2/3to2/4 2/4to3/4 3/4to3/3 3/3to2/3 2/3to2/2 2/2to2/1 2/1to1/1 1/1to1/2 1/2to1/3 1/3to2/3 2/3to2/4 2/4to1/4 1/4to1/3 1/3to1/2 1/2to1/1 1/1to1/0 1/0to0/0 0/0to0/1 0/1to0/2 0/2to0/3 0/3to1/3 1/3to2/3 2/3to3/3 3/3to4/3 4/3to4/2 4/2to4/1 4/1to3/1 3/1to2/1 2/1to1/1 1/1to1/2 1/2to1/3 1/3to1/4 1/4to2/4 2/4to2/3 2/3to1/3 1/3to1/2 1/2to1/1 1/1to1/0 1/0to2/0 2/0to2/1 2/1to2/2 2/2to2/3 2/3to3/3 3/3to4/3 4/3to4/4 4/4to3/4 3/4to3/3 3/3to3/2 3/2to2/2 2/2to2/1 2/1to3/1 3/1to4/1 4/1to4/0 4/0to3/0 3/0to2/0 2/0to1/0 1/0to1/1 1/1to0/1 0/1to0/0 0/0to1/0 1/0to1/1 1/1to2/1 2/1to3/1 3/1to4/1 4/1to4/2 4/2to3/2 3/2to3/1 3/1to3/0 3/0to2/0 2/0to2/1 2/1to2/2 2/2to2/3 2/3to1/3 1/3to1/2"/>
    <route id="route3" edges="4/3to3/3 3/3to3/2 3/2to3/1 3/1to3/0 3/0to4/0 4/0to4/1 4/1to3/1 3/1to3/0 3/0to2/0 2/0to2/1 2/1to3/1 3/1to3/2 3/2to3/3 3/3to4/3 4/3to4/4 4/4to3/4 3/4to2/4 2/4to2/3 2/3to1/3 1/3to1/2 1/2to1/1 1/1to1/0 1/0to0/0 0/0to0/1 0/1to0/2 0/2to0/3 0/3to1/3 1/3to1/4 1/4to0/4 0/4to0/3 0/3to0/2 0/2to0/1 0/1to1/1 1/1to2/1 2/1to3/1 3/1to3/2 3/2to2/2 2/2to2/3 2/3to3/3 3/3to4/3 4/3to4/2 4/2to3/2 3/2to2/2 2/2to2/1 2/1to2/0 2/0to1/0 1/0to1/1 1/1to2/1 2/1to3/1 3/1to3/0 3/0to2/0 2/0to2/1 2/1to2/2 2/2to3/2 3/2to3/3 3/3to2/3 2/3to1/3 1/3to0/3 0/3to0/2 0/2to0/1 0/1to1/1 1/1to1/2 1/2to1/3 1/3to0/3 0/3to0/2 0/2to1/2 1/2to1/3 1/3to2/3 2/3to2/2 2/2to1/2 1/2to1/1 1/1to0/1 0/1to0/2 0/2to1/2 1/2to1/3 1/3to0/3 0/3to0/2 0/2to0/1 0/1to1/1 1/1to1/2 1/2to0/2 0/2to0/1 0/1to1/1 1/1to1/0 1/0to2/0 2/0to3/0 3/0to3/1 3/1to2/1 2/1to2/2 2/2to2/3 2/3to1/3 1/3to1/2 1/2to0/2 0/2to0/3 0/3to1/3 1/3to1/2 1/2to0/2 0/2to0/1 0/1to1/1 1/1to1/0 1/0to2/0 2/0to3/0 3/0to4/0 4/0to4/1 4/1to3/1 3/1to3/0 3/0to4/0 4/0to4/1 4/1to3/1 3/1to2/1 2/1to1/1 1/1to1/0 1/0to0/0 0/0to0/1 0/1to1/1 1/1to1/0 1/0to2/0 2/0to3/0 3/0to4/0 4/0to4/1 4/1to3/1 3/1to2/1 2/1to1/1 1/1to0/1 0/1to0/0 0/0to1/0 1/0to1/1 1/1to1/2 1/2to1/3 1/3to2/3 2/3to2/4 2/4to1/4 1/4to1/3 1/3to1/2 1/2to1/1 1/1to2/1 2/1to3/1 3/1to4/1 4/1to4/0 4/0to3/0 3/0to3/1 3/1to3/2 3/2to2/2 2/2to1/2 1/2to1/3 1/3to2/3 2/3to2/2 2/2to2/1 2/1to3/1 3/1to4/1 4/1to4/2 4/2to3/2 3/2to3/3 3/3to3/4 3/4to2/4 2/4to2/3 2/3to2/2 2/2to3/2 3/2to4/2 4/2to4/1 4/1to3/1 3/1to3/0 3/0to4/0 4/0to4/1 4/1to4/2 4/2to3/2 3/2to2/2 2/2to2/1 2/1to1/1 1/1to1/0 1/0to2/0 2/0to2/1 2/1to3/1 3/1to3/2 3/2to3/3 3/3to2/3 2/3to2/2 2/2to3/2 3/2to4/2 4/2to4/3 4/3to3/3 3/3to3/2 3/2to2/2 2/2to2/3 2/3to3/3 3/3to4/3 4/3to4/2 4/2to3/2 3/2to3/3 3/3to2/3 2/3to2/4 2/4to3/4 3/4to3/3 3/3to2/3 2/3to2/4 2/4to3/4 3/4to4/4 4/4to4/3 4/3to3/3 3/3to2/3 2/3to1/3 1/3to1/2 1/2to0/2 0/2to0/3 0/3to1/3 1/3to1/2 1/2to1/1 1/1to0/1 0/1to0/2 0/2to1/2 1/2to2/2 2/2to3/2 3/2to4/2 4/2to4/3 4/3to3/3 3/3to3/2 3/2to3/1 3/1to2/1 2/1to2/2 2/2to3/2 3/2to3/1 3/1to2/1 2/1to2/2 2/2to1/2 1/2to1/1 1/1to1/0 1/0to2/0 2/0to2/1 2/1to3/1 3/1to4/1 4/1to4/0 4/0to3/0 3/0to3/1 3/1to3/2 3/2to3/3 3/3to4/3 4/3to4/4 4/4to3/4 3/4to2/4 2/4to1/4 1/4to1/3 1/3to1/2 1/2to1/1 1/1to0/1 0/1to0/2 0/2to1/2 1/2to1/1 1/1to1/0 1/0to2/0 2/0to3/0 3/0to4/0 4/0to4/1 4/1to3/1 3/1to2/1 2/1to2/2 2/2to1/2 1/2to1/1 1/1to1/0 1/0to2/0 2/0to2/1 2/1to1/1 1/1to1/2 1/2to2/2 2/2to2/1 2/1to3/1 3/1to4/1 4/1to4/0 4/0to3/0 3/0to2/0 2/0to1/0 1/0to0/0 0/0to0/1 0/1to0/2 0/2to0/3 0/3to0/4 0/4to1/4 1/4to1/3 1/3to0/3 0/3to0/2 0/2to0/1 0/1to1/1 1/1to2/1 2/1to3/1 3/1to4/1 4/1to4/0 4/0to3/0 3/0to3/1 3/1to3/2 3/2to4/2 4/2to4/3 4/3to4/4 4/4to3/4 3/4to2/4 2/4to2/3 2/3to2/2 2/2to1/2 1/2to1/3 1/3to2/3 2/3to3/3 3/3to3/2 3/2to2/2 2/2to2/3 2/3to2/4 2/4to3/4 3/4to3/3 3/3to2/3 2/3to1/3 1/3to1/4 1/4to2/4 2/4to2/3 2/3to2/2 2/2to1/2 1/2to1/3 1/3to1/4 1/4to2/4 2/4to3/4 3/4to3/3 3/3to4/3 4/3to4/2 4/2to3/2 3/2to3/1 3/1to3/0 3/0to2/0 2/0to2/1 2/1to1/1 1/1to1/0 1/0to2/0 2/0to3/0 3/0to3/1 3/1to2/1 2/1to1/1 1/1to1/2 1/2to1/3 1/3to0/3 0/3to0/2 0/2to1/2 1/2to2/2 2/2to2/3 2/3to2/4 2/4to1/4 1/4to1/3 1/3to2/3 2/3to2/2 2/2to3/2 3/2to3/3 3/3to4/3 4/3to4/4 4/4to3/4 3/4to2/4 2/4to1/4 1/4to1/3 1/3to1/2 1/2to1/1 1/1to1/0 1/0to0/0 0/0to0/1 0/1to1/1 1/1to1/0 1/0to2/0 2/0to3/0 3/0to3/1 3/1to3/2 3/2to3/3 3/3to3/4 3/4to4/4 4/4to4/3 4/3to4/2 4/2to3/2 3/2to3/3 3/3to3/4 3/4to2/4 2/4to2/3 2/3to3/3 3/3to3/4 3/4to2/4 2/4to1/4 1/4to1/3 1/3to1/2 1/2to1/1 1/1to1/0 1/0to2/0 2/0to2/1 2/1to2/2 2/2to3/2 3/2to4/2 4/2to4/3 4/3to3/3 3/3to3/2 3/2to3/1 3/1to4/1 4/1to4/2 4/2to3/2 3/2to3/1 3/1to3/0 3/0to4/0 4/0to4/1 4/1to4/2 4/2to4/3 4/3to3/3 3/3to3/2 3/2to3/1 3/1to4/1 4/1to4/0 4/0to3/0 3/0to2/0 2/0to1/0 1/0to1/1 1/1to1/2 1/2to1/3 1/3to1/4 1/4to2/4 2/4to2/3 2/3to2/2 2/2to2/1 2/1to3/1 3/1to3/2 3/2to3/3 3/3to4/3 4/3to4/4 4/4to3/4 3/4to2/4 2/4to1/4 1/4to1/3 1/3to1/2 1/2to2/2 2/2to3/2 3/2to4/2 4/2to4/1 4/1to3/1 3/1to2/1 2/1to2/2 2/2to1/2 1/2to1/3 1/3to1/4 1/4to2/4 2/4to2/3 2/3to1/3 1/3to1/2 1/2to1/1 1/1to2/1 2/1to2/2 2/2to1/2 1/2to0/2 0/2to0/3 0/3to0/4 0/4to1/4 1/4to2/4 2/4to2/3 2/3to1/3 1/3to1/4 1/4to0/4 0/4to0/3 0/3to0/2 0/2to0/1 0/1to1/1 1/1to1/0 1/0to2/0 2/0to3/0"/>
    <route id="route4" edges="0/2to0/3 0/3to0/4 0/4to1/4 1/4to2/4 2/4to3/4 3/4to4/4 4/4to4/3 4/3to3/3 3/3to3/2 3/2to3/1 3/1to3/0 3/0to4/0 4/0to4/1 4/1to3/1 3/1to2/1 2/1to1/1 1/1to0/1 0/1to0/2 0/2to0/3 0/3to1/3 1/3to1/2 1/2to1/1 1/1to2/1 2/1to3/1 3/1to4/1 4/1to4/2 4/2to3/2 3/2to3/3 3/3to4/3 4/3to4/2 4/2to3/2 3/2to2/2 2/2to2/3 2/3to2/4 2/4to3/4 3/4to3/3 3/3to2/3 2/3to2/2 2/2to2/1 2/1to1/1 1/1to1/2 1/2to1/3 1/3to2/3 2/3to3/3 3/3to4/3 4/3to4/2 4/2to3/2 3/2to2/2 2/2to2/1 2/1to2/0 2/0to1/0 1/0to1/1 1/1to1/2 1/2to1/3 1/3to2/3 2/3to3/3 3/3to3/2 3/2to2/2 2/2to2/3 2/3to3/3 3/3to3/4 3/4to2/4 2/4to1/4 1/4to1/3 1/3to1/2 1/2to2/2 2/2to2/1 2/1to2/0 2/0to3/0 3/0to3/1 3/1to2/1 2/1to2/2 2/2to2/3 2/3to1/3 1/3to1/2 1/2to1/1 1/1to2/1 2/1to2/2 2/2to3/2 3/2to4/2 4/2to4/1 4/1to3/1 3/1to2/1 2/1to1/1 1/1to1/2 1/2to0/2 0/2to0/1 0/1to1/1 1/1to1/0 1/0to2/0 2/0to2/1 2/1to2/2 2/2to3/2 3/2to4/2 4/2to4/3 4/3to3/3 3/3to2/3 2/3to2/4 2/4to3/4 3/4to3/3 3/3to3/2 3/2to3/1 3/1to3/0 3/0to2/0 2/0to2/1 2/1to1/1 1/1to1/0 1/0to2/0 2/0to3/0 3/0to3/1 3/1to2/1 2/1to2/0 2/0to1/0 1/0to1/1 1/1to2/1 2/1to2/0 2/0to1/0 1/0to1/1 1/1to0/1 0/1to0/2 0/2to0/3 0/3to0/4 0/4to1/4 1/4to2/4 2/4to3/4 3/4to4/4 4/4to4/3 4/3to3/3 3/3to3/2 3/2to4/2 4/2to4/1 4/1to4/0 4/0to3/0 3/0to2/0 2/0to1/0 1/0to0/0 0/0to0/1 0/1to1/1 1/1to2/1 2/1to3/1 3/1to3/2 3/2to2/2 2/2to1/2 1/2to1/3 1/3to0/3 0/3to0/2 0/2to1/2 1/2to2/2 2/2to2/1 2/1to3/1 3/1to3/2 3/2to2/2 2/2to1/2 1/2to0/2 0/2to0/1 0/1to0/0 0/0to1/0 1/0to1/1 1/1to1/2 1/2to1/3 1/3to2/3 2/3to2/4 2/4to1/4 1/4to1/3 1/3to2/3 2/3to2/4 2/4to3/4 3/4to3/3 3/3to3/2 3/2to4/2 4/2to4/1 4/1to3/1 3/1to2/1 2/1to2/2 2/2to3/2 3/2to3/3 3/3to2/3 2/3to1/3 1/3to1/2 1/2to2/2 2/2to2/3 2/3to2/4 2/4to3/4 3/4to3/3 3/3to2/3 2/3to2/4 2/4to1/4 1/4to1/3 1/3to1/2 1/2to2/2 2/2to3/2 3/2to3/3 3/3to2/3 2/3to2/2 2/2to1/2 1/2to1/3 1/3to0/3 0/3to0/2 0/2to0/1 0/1to1/1 1/1to1/0 1/0to0/0 0/0to0/1 0/1to0/2 0/2to1/2 1/2to1/3 1/3to0/3 0/3to0/2 0/2to1/2 1/2to1/1 1/1to0/1 0/1to0/2 0/2to0/3 0/3to1/3 1/3to1/2 1/2to2/2 2/2to2/1 2/1to1/1 1/1to1/2 1/2to2/2 2/2to2/3 2/3to3/3 3/3to3/2 3/2to4/2 4/2to4/1 4/1to3/1 3/1to3/2 3/2to4/2 4/2to4/3 4/3to3/3 3/3to3/4 3/4to4/4 4/4to4/3 4/3to3/3 3/3to2/3 2/3to1/3 1/3to1/2 1/2to1/1 1/1to2/1 2/1to2/2 2/2to2/3 2/3to2/4 2/4to1/4 1/4to1/3 1/3to0/3 0/3to0/2 0/2to0/1 0/1to1/1 1/1to1/2 1/2to1/3 1/3to0/3 0/3to0/2 0/2to1/2 1/2to2/2 2/2to3/2 3/2to3/1 3/1to2/1 2/1to2/2 2/2to2/3 2/3to1/3 1/3to1/2 1/2to0/2 0/2to0/3 0/3to1/3 1/3to1/2 1/2to2/2 2/2to3/2 3/2to4/2 4/2to4/1 4/1to3/1 3/1to3/2 3/2to3/3 3/3to4/3 4/3to4/4 4/4to3/4 3/4to2/4 2/4to1/4 1/4to1/3 1/3to0/3 0/3to0/2 0/2to0/1 0/1to1/1 1/1to1/0 1/0to0/0 0/0to0/1 0/1to1/1 1/1to1/2 1/2to2/2 2/2to3/2 3/2to3/3 3/3to2/3 2/3to2/2 2/2to2/1 2/1to2/0 2/0to3/0 3/0to4/0 4/0to4/1 4/1to3/1 3/1to2/1 2/1to1/1 1/1to1/2 1/2to0/2 0/2to0/1 0/1to1/1 1/1to1/0 1/0to0/0 0/0to0/1 0/1to0/2 0/2to0/3 0/3to1/3 1/3to2/3 2/3to2/2 2/2to1/2 1/2to1/3 1/3to1/4 1/4to0/4 0/4to0/3 0/3to0/2 0/2to0/1 0/1to0/0 0/0to1/0 1/0to2/0 2/0to2/1 2/1to1/1 1/1to1/0 1/0to0/0 0/0to0/1 0/1to0/2 0/2to1/2 1/2to1/1 1/1to0/1 0/1to0/2 0/2to1/2 1/2to2/2 2/2to2/3 2/3to2/4 2/4to1/4 1/4to1/3 1/3to1/2 1/2to0/2 0/2to0/1 0/1to1/1 1/1to1/2 1/2to2/2 2/2to2/1 2/1to1/1 1/1to0/1 0/1to0/2 0/2to1/2 1/2to1/1 1/1to2/1 2/1to3/1 3/1to4/1 4/1to4/0 4/0to3/0 3/0to2/0 2/0to1/0 1/0to1/1 1/1to2/1 2/1to2/2 2/2to2/3 2/3to2/4 2/4to1/4 1/4to1/3 1/3to1/2 1/2to1/1 1/1to2/1 2/1to2/2 2/2to1/2 1/2to1/3 1/3to1/4 1/4to2/4 2/4to2/3 2/3to1/3 1/3to1/2 1/2to1/1 1/1to1/0 1/0to2/0 2/0to2/1 2/1to1/1 1/1to0/1 0/1to0/0 0/0to1/0 1/0to1/1 1/1to2/1 2/1to2/0 2/0to3/0 3/0to4/0 4/0to4/1 4/1to3/1 3/1to3/2 3/2to3/3 3/3to2/3 2/3to1/3 1/3to1/2 1/2to1/1 1/1to1/0 1/0to2/0 2/0to3/0 3/0to3/1 3/1to2/1 2/1to2/0 2/0to1/0 1/0to1/1 1/1to2/1 2/1to3/1 3/1to4/1 4/1to4/2 4/2to3/2 3/2to2/2 2/2to1/2 1/2to1/1 1/1to0/1 0/1to0/2 0/2to1/2 1/2to1/3 1/3to2/3 2/3to3/3 3/3to4/3 4/3to4/2 4/2to4/1 4/1to4/0 4/0to3/0 3/0to2/0 2/0to1/0 1/0to1/1 1/1to1/2 1/2to1/3 1/3to1/4 1/4to0/4 0/4to0/3 0/3to1/3 1/3to1/4 1/4to2/4 2/4to3/4 3/4to4/4 4/4to4/3 4/3to3/3 3/3to2/3 2/3to1/3 1/3to0/3 0/3to0/4 0/4to1/4 1/4to1/3 1/3to1/2 1/2to1/1 1/1to0/1 0/1to0/2 0/2to1/2 1/2to1/3 1/3to2/3 2/3to3/3 3/3to3/4 3/4to2/4 2/4to2/3 2/3to2/2 2/2to2/1 2/1to2/0 2/0to3/0 3/0to3/1 3/1to3/2 3/2to3/3 3/3to4/3 4/3to4/2 4/2to3/2 3/2to3/1 3/1to3/0 3/0to2/0 2/0to1/0 1/0to1/1 1/1to0/1 0/1to0/2 0/2to0/3 0/3to0/4 0/4to1/4 1/4to1/3 1/3to1/2 1/2to1/1 1/1to0/1 0/1to0/2 0/2to1/2 1/2to2/2 2/2to3/2 3/2to4/2 4/2to4/3 4/3to3/3 3/3to2/3 2/3to1/3 1/3to0/3 0/3to0/4 0/4to1/4 1/4to1/3 1/3to2/3 2/3to3/3 3/3to4/3 4/3to4/2 4/2to3/2 3/2to3/3 3/3to3/4 3/4to2/4 2/4to1/4 1/4to1/3 1/3to1/2 1/2to1/1 1/1to1/0 1/0to2/0 2/0to2/1 2/1to1/1 1/1to1/2 1/2to1/3 1/3to2/3 2/3to2/2 2/2to1/2 1/2to0/2 0/2to0/1 0/1to1/1 1/1to1/0 1/0to2/0 2/0to3/0 3/0to3/1 3/1to2/1 2/1to2/0 2/0to1/0 1/0to1/1 1/1to2/1 2/1to2/2 2/2to1/2 1/2to0/2 0/2to0/1 0/1to0/0 0/0to1/0 1/0to1/1 1/1to1/2 1/2to0/2 0/2to0/1 0/1to1/1 1/1to1/0 1/0to2/0 2/0to2/1 2/1to1/1 1/1to1/2 1/2to1/3 1/3to2/3 2/3to2/2 2/2to1/2 1/2to1/1 1/1to2/1 2/1to2/2 2/2to3/2 3/2to4/2 4/2to4/1 4/1to3/1 3/1to2/1 2/1to2/2 2/2to3/2 3/2to3/1 3/1to3/0 3/0to2/0 2/0to2/1 2/1to2/2 2/2to3/2 3/2to4/2 4/2to4/1 4/1to3/1 3/1to2/1 2/1to1/1 1/1to1/2 1/2to1/3 1/3to1/4 1/4to2/4 2/4to2/3 2/3to2/2 2/2to2/1 2/1to1/1 1/1to1/2 1/2to0/2 0/2to0/1 0/1to1/1 1/1to2/1 2/1to2/2 2/2to2/3 2/3to2/4 2/4to3/4 3/4to4/4 4/4to4/3 4/3to4/2 4/2to4/1 4/1to4/0 4/0to3/0 3/0to3/1 3/1to4/1 4/1to4/2 4/2to3/2 3/2to2/2 2/2to2/3 2/3to2/4 2/4to3/4 3/4to3/3 3/3to2/3 2/3to1/3 1/3to0/3 0/3to0/4 0/4to1/4 1/4to1/3 1/3to0/3 0/3to0/2 0/2to0/1 0/1to1/1 1/1to1/2 1/2to1/3 1/3to2/3 2/3to3/3 3/3to4/3 4/3to4/2 4/2to4/1 4/1to4/0 4/0to3/0 3/0to2/0 2/0to2/1 2/1to2/2 2/2to2/3 2/3to1/3 1/3to1/2 1/2to2/2 2/2to3/2 3/2to4/2 4/2to4/1 4/1to3/1 3/1to3/2 3/2to4/2 4/2to4/3 4/3to3/3 3/3to2/3 2/3to2/4 2/4to1/4 1/4to1/3 1/3to1/2 1/2to1/1 1/1to2/1 2/1to2/2 2/2to1/2 1/2to1/3 1/3to1/4 1/4to0/4"/>