<routes>

    <route id="route1" edges="1/1to2/1 2/1to2/2 2/2to3/2 3/2to3/3 3/3to2/3 2/3to1/3 1/3to1/2 1/2to1/1 1/1to2/1 2/1to2/2 2/2to3/2 3/2to3/3 3/3to2/3 2/3to1/3 1/3to1/2 1/2to1/1 1/1to2/1 2/1to2/2 2/2to3/2 3/2to3/3 3/3to2/3 2/3to1/3 1/3to1/2 1/2to1/1 1/1to2/1 2/1to2/2 2/2to3/2 3/2to3/3 3/3to2/3 2/3to1/3 1/3to1/2 1/2to1/1 1/1to2/1 2/1to2/2 2/2to3/2 3/2to3/3 3/3to2/3 2/3to1/3 1/3to1/2 1/2to1/1 1/1to2/1 2/1to2/2 2/2to3/2 3/2to3/3 3/3to2/3 2/3to1/3 1/3to1/2 1/2to1/1 1/1to2/1 2/1to2/2 2/2to3/2 3/2to3/3 3/3to2/3 2/3to1/3 1/3to1/2 1/2to1/1 1/1to2/1 2/1to2/2 2/2to3/2 3/2to3/3 3/3to2/3 2/3to1/3 1/3to1/2 1/2to1/1 1/1to2/1 2/1to2/2 2/2to3/2 3/2to3/3 3/3to2/3 2/3to1/3 1/3to1/2 1/2to1/1 1/1to2/1 2/1to2/2 2/2to3/2 3/2to3/3 3/3to2/3 2/3to1/3 1/3to1/2 1/2to1/1 1/1to2/1 2/1to2/2 2/2to3/2 3/2to3/3 3/3to2/3 2/3to1/3 1/3to1/2 1/2to1/1 1/1to2/1 2/1to2/2 2/2to3/2 3/2to3/3 3/3to2/3 2/3to1/3 1/3to1/2 1/2to1/1 1/1to2/1 2/1to2/2 2/2to3/2 3/2to3/3 3/3to2/3 2/3to1/3 1/3to1/2 1/2to1/1 1/1to2/1 2/1to2/2 2/2to3/2 3/2to3/3 3/3to2/3 2/3to1/3 1/3to1/2 1/2to1/1 1/1to2/1 2/1to2/2 2/2to3/2 3/2to3/3 3/3to2/3 2/3to1/3 1/3to1/2 1/2to1/1 1/1to2/1 2/1to2/2 2/2to3/2 3/2to3/3 3/3to2/3 2/3to1/3 1/3to1/2 1/2to1/1 1/1to2/1 2/1to2/2 2/2to3/2 3/2to3/3 3/3to2/3 2/3to1/3 1/3to1/2 1/2to1/1 1/1to2/1 2/1to2/2 2/2to3/2 3/2to3/3 3/3to2/3 2/3to1/3 1/3to1/2 1/2to1/1 1/1to2/1 2/1to2/2 2/2to3/2 3/2to3/3 3/3to2/3 2/3to1/3 1/3to1/2 1/2to1/1 1/1to2/1 2/1to2/2 2/2to3/2 3/2to3/3 3/3to2/3 2/3to1/3 1/3to1/2 1/2to1/1 1/1to2/1 2/1to2/2 2/2to3/2 3/2to3/3 3/3to2/3 2/3to1/3 1/3to1/2 1/2to1/1 1/1to2/1 2/1to2/2 2/2to3/2 3/2to3/3 3/3to2/3 2/3to1/3 1/3to1/2 1/2to1/1 1/1to2/1 2/1to2/2 2/2to3/2 3/2to3/3 3/3to2/3 2/3to1/3 1/3to1/2 1/2to1/1 1/1to2/1 2/1to2/2 2/2to3/2 3/2to3/3 3/3to2/3 2/3to1/3 1/3to1/2 1/2to1/1 1/1to2/1 2/1to2/2 2/2to3/2 3/2to3/3 3/3to2/3 2/3to1/3 1/3to1/2 1/2to1/1 1/1to2/1 2/1to2/2 2/2to3/2 3/2to3/3 3/3to2/3 2/3to1/3 1/3to1/2 1/2to1/1 1/1to2/1 2/1to2/2 2/2to3/2 3/2to3/3 3/3to2/3 2/3to1/3 1/3to1/2 1/2to1/1 1/1to2/1 2/1to2/2 2/2to3/2 3/2to3/3 3/3to2/3 2/3to1/3 1/3to1/2 1/2to1/1 1/1to2/1 2/1to2/2 2/2to3/2 3/2to3/3 3/3to2/3 2/3to1/3 1/3to1/2 1/2to1/1 1/1to2/1 2/1to2/2 2/2to3/2 3/2to3/3 3/3to2/3 2/3to1/3 1/3to1/2 1/2to1/1 1/1to2/1 2/1to2/2 2/2to3/2 3/2to3/3 3/3to2/3 2/3to1/3 1/3to1/2 1/2to1/1 1/1to2/1 2/1to2/2 2/2to3/2 3/2to3/3 3/3to2/3 2/3to1/3 1/3to1/2 1/2to1/1 1/1to2/1 2/1to2/2 2/2to3/2 3/2to3/3 3/3to2/3 2/3to1/3 1/3to1/2 1/2to1/1 1/1to2/1 2/1to2/2 2/2to3/2 3/2to3/3 3/3to2/3 2/3to1/3 1/3to1/2 1/2to1/1 1/1to2/1 2/1to2/2 2/2to3/2 3/2to3/3 3/3to2/3 2/3to1/3 1/3to1/2 1/2to1/1 1/1to2/1 2/1to2/2 2/2to3/2 3/2to3/3 3/3to2/3 2/3to1/3 1/3to1/2 1/2to1/1 1/1to2/1 2/1to2/2 2/2to3/2 3/2to3/3 3/3to2/3 2/3to1/3 1/3to1/2 1/2to1/1 1/1to2/1 2/1to2/2 2/2to3/2 3/2to3/3 3/3to2/3 2/3to1/3 1/3to1/2 1/2to1/1 1/1to2/1 2/1to2/2 2/2to3/2 3/2to3/3 3/3to2/3 2/3to1/3 1/3to1/2 1/2to1/1 1/1to2/1 2/1to2/2 2/2to3/2 3/2to3/3 3/3to2/3 2/3to1/3 1/3to1/2 1/2to1/1 1/1to2/1 2/1to2/2 2/2to3/2 3/2to3/3 3/3to2/3 2/3to1/3 1/3to1/2 1/2to1/1 1/1to2/1 2/1to2/2 2/2to3/2 3/2to3/3 3/3to2/3 2/3to1/3 1/3to1/2 1/2to1/1 1/1to2/1 2/1to2/2 2/2to3/2 3/2to3/3 3/3to2/3 2/3to1/3 1/3to1/2 1/2to1/1 1/1to2/1 2/1to2/2 2/2to3/2 3/2to3/3 3/3to2/3 2/3to1/3 1/3to1/2 1/2to1/1 1/1to2/1 2/1to2/2 2/2to3/2 3/2to3/3 3/3to2/3 2/3to1/3 1/3to1/2 1/2to1/1 1/1to2/1 2/1to2/2 2/2to3/2 3/2to3/3 3/3to2/3 2/3to1/3 1/3to1/2 1/2to1/1 1/1to2/1 2/1to2/2 2/2to3/2 3/2to3/3 3/3to2/3 2/3to1/3 1/3to1/2 1/2to1/1 1/1to2/1 2/1to2/2 2/2to3/2 3/2to3/3 3/3to2/3 2/3to1/3 1/3to1/2 1/2to1/1 1/1to2/1 2/1to2/2 2/2to3/2 3/2to3/3 3/3to2/3 2/3to1/3 1/3to1/2 1/2to1/1 1/1to2/1 2/1to2/2 2/2to3/2 3/2to3/3 3/3to2/3 2/3to1/3 1/3to1/2 1/2to1/1 1/1to2/1 2/1to2/2 2/2to3/2 3/2to3/3 3/3to2/3 2/3to1/3 1/3to1/2 1/2to1/1 "/>
    <route id="route2" edges="3/3to3/4 3/4to2/4 2/4to2/3 2/3to2/2 2/2to3/2 3/2to4/2 4/2to4/3 4/3to3/3 3/3to3/4 3/4to2/4 2/4to2/3 2/3to2/2 2/2to3/2 3/2to4/2 4/2to4/3 4/3to3/3 3/3to3/4 3/4to2/4 2/4to2/3 2/3to2/2 2/2to3/2 3/2to4/2 4/2to4/3 4/3to3/3 3/3to3/4 3/4to2/4 2/4to2/3 2/3to2/2 2/2to3/2 3/2to4/2 4/2to4/3 4/3to3/3 3/3to3/4 3/4to2/4 2/4to2/3 2/3to2/2 2/2to3/2 3/2to4/2 4/2to4/3 4/3to3/3 3/3to3/4 3/4to2/4 2/4to2/3 2/3to2/2 2/2to3/2 3/2to4/2 4/2to4/3 4/3to3/3 3/3to3/4 3/4to2/4 2/4to2/3 2/3to2/2 2/2to3/2 3/2to4/2 4/2to4/3 4/3to3/3 3/3to3/4 3/4to2/4 2/4to2/3 2/3to2/2 2/2to3/2 3/2to4/2 4/2to4/3 4/3to3/3 3/3to3/4 3/4to2/4 2/4to2/3 2/3to2/2 2/2to3/2 3/2to4/2 4/2to4/3 4/3to3/3 3/3to3/4 3/4to2/4 2/4to2/3 2/3to2/2 2/2to3/2 3/2to4/2 4/2to4/3 4/3to3/3 3/3to3/4 3/4to2/4 2/4to2/3 2/3to2/2 2/2to3/2 3/2to4/2 4/2to4/3 4/3to3/3 3/3to3/4 3/4to2/4 2/4to2/3 2/3to2/2 2/2to3/2 3/2to4/2 4/2to4/3 4/3to3/3 3/3to3/4 3/4to2/4 2/4to2/3 2/3to2/2 2/2to3/2 3/2to4/2 4/2to4/3 4/3to3/3 3/3to3/4 3/4to2/4 2/4to2/3 2/3to2/2 2/2to3/2 3/2to4/2 4/2to4/3 4/3to3/3 3/3to3/4 3/4to2/4 2/4to2/3 2/3to2/2 2/2to3/2 3/2to4/2 4/2to4/3 4/3to3/3 3/3to3/4 3/4to2/4 2/4to2/3 2/3to2/2 2/2to3/2 3/2to4/2 4/2to4/3 4/3to3/3 3/3to3/4 3/4to2/4 2/4to2/3 2/3to2/2 2/2to3/2 3/2to4/2 4/2to4/3 4/3to3/3 3/3to3/4 3/4to2/4 2/4to2/3 2/3to2/2 2/2to3/2 3/2to4/2 4/2to4/3 4/3to3/3 3/3to3/4 3/4to2/4 2/4to2/3 2/3to2/2 2/2to3/2 3/2to4/2 4/2to4/3 4/3to3/3 3/3to3/4 3/4to2/4 2/4to2/3 2/3to2/2 2/2to3/2 3/2to4/2 4/2to4/3 4/3to3/3 3/3to3/4 3/4to2/4 2/4to2/3 2/3to2/2 2/2to3/2 3/2to4/2 4/2to4/3 4/3to3/3 3/3to3/4 3/4to2/4 2/4to2/3 2/3to2/2 2/2to3/2 3/2to4/2 4/2to4/3 4/3to3/3 3/3to3/4 3/4to2/4 2/4to2/3 2/3to2/2 2/2to3/2 3/2to4/2 4/2to4/3 4/3to3/3 3/3to3/4 3/4to2/4 2/4to2/3 2/3to2/2 2/2to3/2 3/2to4/2 4/2to4/3 4/3to3/3 3/3to3/4 3/4to2/4 2/4to2/3 2/3to2/2 2/2to3/2 3/2to4/2 4/2to4/3 4/3to3/3 3/3to3/4 3/4to2/4 2/4to2/3 2/3to2/2 2/2to3/2 3/2to4/2 4/2to4/3 4/3to3/3 3/3to3/4 3/4to2/4 2/4to2/3 2/3to2/2 2/2to3/2 3/2to4/2 4/2to4/3 4/3to3/3 3/3to3/4 3/4to2/4 2/4to2/3 2/3to2/2 2/2to3/2 3/2to4/2 4/2to4/3 4/3to3/3 3/3to3/4 3/4to2/4 2/4to2/3 2/3to2/2 2/2to3/2 3/2to4/2 4/2to4/3 4/3to3/3 3/3to3/4 3/4to2/4 2/4to2/3 2/3to2/2 2/2to3/2 3/2to4/2 4/2to4/3 4/3to3/3 3/3to3/4 3/4to2/4 2/4to2/3 2/3to2/2 2/2to3/2 3/2to4/2 4/2to4/3 4/3to3/3 3/3to3/4 3/4to2/4 2/4to2/3 2/3to2/2 2/2to3/2 3/2to4/2 4/2to4/3 4/3to3/3 3/3to3/4 3/4to2/4 2/4to2/3 2/3to2/2 2/2to3/2 3/2to4/2 4/2to4/3 4/3to3/3 3/3to3/4 3/4to2/4 2/4to2/3 2/3to2/2 2/2to3/2 3/2to4/2 4/2to4/3 4/3to3/3 3/3to3/4 3/4to2/4 2/4to2/3 2/3to2/2 2/2to3/2 3/2to4/2 4/2to4/3 4/3to3/3 3/3to3/4 3/4to2/4 2/4to2/3 2/3to2/2 2/2to3/2 3/2to4/2 4/2to4/3 4/3to3/3 3/3to3/4 3/4to2/4 2/4to2/3 2/3to2/2 2/2to3/2 3/2to4/2 4/2to4/3 4/3to3/3 3/3to3/4 3/4to2/4 2/4to2/3 2/3to2/2 2/2to3/2 3/2to4/2 4/2to4/3 4/3to3/3 3/3to3/4 3/4to2/4 2/4to2/3 2/3to2/2 2/2to3/2 3/2to4/2 4/2to4/3 4/3to3/3 3/3to3/4 3/4to2/4 2/4to2/3 2/3to2/2 2/2to3/2 3/2to4/2 4/2to4/3 4/3to3/3 3/3to3/4 3/4to2/4 2/4to2/3 2/3to2/2 2/2to3/2 3/2to4/2 4/2to4/3 4/3to3/3 3/3to3/4 3/4to2/4 2/4to2/3 2/3to2/2 2/2to3/2 3/2to4/2 4/2to4/3 4/3to3/3 3/3to3/4 3/4to2/4 2/4to2/3 2/3to2/2 2/2to3/2 3/2to4/2 4/2to4/3 4/3to3/3 3/3to3/4 3/4to2/4 2/4to2/3 2/3to2/2 2/2to3/2 3/2to4/2 4/2to4/3 4/3to3/3 3/3to3/4 3/4to2/4 2/4to2/3 2/3to2/2 2/2to3/2 3/2to4/2 4/2to4/3 4/3to3/3 3/3to3/4 3/4to2/4 2/4to2/3 2/3to2/2 2/2to3/2 3/2to4/2 4/2to4/3 4/3to3/3 3/3to3/4 3/4to2/4 2/4to2/3 2/3to2/2 2/2to3/2 3/2to4/2 4/2to4/3 4/3to3/3 3/3to3/4 3/4to2/4 2/4to2/3 2/3to2/2 2/2to3/2 3/2to4/2 4/2to4/3 4/3to3/3 3/3to3/4 3/4to2/4 2/4to2/3 2/3to2/2 2/2to3/2 3/2to4/2 4/2to4/3 4/3to3/3 3/3to3/4 3/4to2/4 2/4to2/3 2/3to2/2 2/2to3/2 3/2to4/2 4/2to4/3 4/3to3/3 3/3to3/4 3/4to2/4 2/4to2/3 2/3to2/2 2/2to3/2 3/2to4/2 4/2to4/3 4/3to3/3 "/>
    <route id="route3" edges="0/2to0/1 0/1to1/1 1/1to2/1 2/1to3/1 3/1to3/2 3/2to2/2 2/2to1/2 1/2to0/2 0/2to0/1 0/1to1/1 1/1to2/1 2/1to3/1 3/1to3/2 3/2to2/2 2/2to1/2 1/2to0/2 0/2to0/1 0/1to1/1 1/1to2/1 2/1to3/1 3/1to3/2 3/2to2/2 2/2to1/2 1/2to0/2 0/2to0/1 0/1to1/1 1/1to2/1 2/1to3/1 3/1to3/2 3/2to2/2 2/2to1/2 1/2to0/2 0/2to0/1 0/1to1/1 1/1to2/1 2/1to3/1 3/1to3/2 3/2to2/2 2/2to1/2 1/2to0/2 0/2to0/1 0/1to1/1 1/1to2/1 2/1to3/1 3/1to3/2 3/2to2/2 2/2to1/2 1/2to0/2 0/2to0/1 0/1to1/1 1/1to2/1 2/1to3/1 3/1to3/2 3/2to2/2 2/2to1/2 1/2to0/2 0/2to0/1 0/1to1/1 1/1to2/1 2/1to3/1 3/1to3/2 3/2to2/2 2/2to1/2 1/2to0/2 0/2to0/1 0/1to1/1 1/1to2/1 2/1to3/1 3/1to3/2 3/2to2/2 2/2to1/2 1/2to0/2 0/2to0/1 0/1to1/1 1/1to2/1 2/1to3/1 3/1to3/2 3/2to2/2 2/2to1/2 1/2to0/2 0/2to0/1 0/1to1/1 1/1to2/1 2/1to3/1 3/1to3/2 3/2to2/2 2/2to1/2 1/2to0/2 0/2to0/1 0/1to1/1 1/1to2/1 2/1to3/1 3/1to3/2 3/2to2/2 2/2to1/2 1/2to0/2 0/2to0/1 0/1to1/1 1/1to2/1 2/1to3/1 3/1to3/2 3/2to2/2 2/2to1/2 1/2to0/2 0/2to0/1 0/1to1/1 1/1to2/1 2/1to3/1 3/1to3/2 3/2to2/2 2/2to1/2 1/2to0/2 0/2to0/1 0/1to1/1 1/1to2/1 2/1to3/1 3/1to3/2 3/2to2/2 2/2to1/2 1/2to0/2 0/2to0/1 0/1to1/1 1/1to2/1 2/1to3/1 3/1to3/2 3/2to2/2 2/2to1/2 1/2to0/2 0/2to0/1 0/1to1/1 1/1to2/1 2/1to3/1 3/1to3/2 3/2to2/2 2/2to1/2 1/2to0/2 0/2to0/1 0/1to1/1 1/1to2/1 2/1to3/1 3/1to3/2 3/2to2/2 2/2to1/2 1/2to0/2 0/2to0/1 0/1to1/1 1/1to2/1 2/1to3/1 3/1to3/2 3/2to2/2 2/2to1/2 1/2to0/2 0/2to0/1 0/1to1/1 1/1to2/1 2/1to3/1 3/1to3/2 3/2to2/2 2/2to1/2 1/2to0/2 0/2to0/1 0/1to1/1 1/1to2/1 2/1to3/1 3/1to3/2 3/2to2/2 2/2to1/2 1/2to0/2 0/2to0/1 0/1to1/1 1/1to2/1 2/1to3/1 3/1to3/2 3/2to2/2 2/2to1/2 1/2to0/2 0/2to0/1 0/1to1/1 1/1to2/1 2/1to3/1 3/1to3/2 3/2to2/2 2/2to1/2 1/2to0/2 0/2to0/1 0/1to1/1 1/1to2/1 2/1to3/1 3/1to3/2 3/2to2/2 2/2to1/2 1/2to0/2 0/2to0/1 0/1to1/1 1/1to2/1 2/1to3/1 3/1to3/2 3/2to2/2 2/2to1/2 1/2to0/2 0/2to0/1 0/1to1/1 1/1to2/1 2/1to3/1 3/1to3/2 3/2to2/2 2/2to1/2 1/2to0/2 0/2to0/1 0/1to1/1 1/1to2/1 2/1to3/1 3/1to3/2 3/2to2/2 2/2to1/2 1/2to0/2 0/2to0/1 0/1to1/1 1/1to2/1 2/1to3/1 3/1to3/2 3/2to2/2 2/2to1/2 1/2to0/2 0/2to0/1 0/1to1/1 1/1to2/1 2/1to3/1 3/1to3/2 3/2to2/2 2/2to1/2 1/2to0/2 0/2to0/1 0/1to1/1 1/1to2/1 2/1to3/1 3/1to3/2 3/2to2/2 2/2to1/2 1/2to0/2 0/2to0/1 0/1to1/1 1/1to2/1 2/1to3/1 3/1to3/2 3/2to2/2 2/2to1/2 1/2to0/2 0/2to0/1 0/1to1/1 1/1to2/1 2/1to3/1 3/1to3/2 3/2to2/2 2/2to1/2 1/2to0/2 0/2to0/1 0/1to1/1 1/1to2/1 2/1to3/1 3/1to3/2 3/2to2/2 2/2to1/2 1/2to0/2 0/2to0/1 0/1to1/1 1/1to2/1 2/1to3/1 3/1to3/2 3/2to2/2 2/2to1/2 1/2to0/2 0/2to0/1 0/1to1/1 1/1to2/1 2/1to3/1 3/1to3/2 3/2to2/2 2/2to1/2 1/2to0/2 0/2to0/1 0/1to1/1 1/1to2/1 2/1to3/1 3/1to3/2 3/2to2/2 2/2to1/2 1/2to0/2 0/2to0/1 0/1to1/1 1/1to2/1 2/1to3/1 3/1to3/2 3/2to2/2 2/2to1/2 1/2to0/2 0/2to0/1 0/1to1/1 1/1to2/1 2/1to3/1 3/1to3/2 3/2to2/2 2/2to1/2 1/2to0/2 0/2to0/1 0/1to1/1 1/1to2/1 2/1to3/1 3/1to3/2 3/2to2/2 2/2to1/2 1/2to0/2 0/2to0/1 0/1to1/1 1/1to2/1 2/1to3/1 3/1to3/2 3/2to2/2 2/2to1/2 1/2to0/2 0/2to0/1 0/1to1/1 1/1to2/1 2/1to3/1 3/1to3/2 3/2to2/2 2/2to1/2 1/2to0/2 0/2to0/1 0/1to1/1 1/1to2/1 2/1to3/1 3/1to3/2 3/2to2/2 2/2to1/2 1/2to0/2 0/2to0/1 0/1to1/1 1/1to2/1 2/1to3/1 3/1to3/2 3/2to2/2 2/2to1/2 1/2to0/2 0/2to0/1 0/1to1/1 1/1to2/1 2/1to3/1 3/1to3/2 3/2to2/2 2/2to1/2 1/2to0/2 0/2to0/1 0/1to1/1 1/1to2/1 2/1to3/1 3/1to3/2 3/2to2/2 2/2to1/2 1/2to0/2 0/2to0/1 0/1to1/1 1/1to2/1 2/1to3/1 3/1to3/2 3/2to2/2 2/2to1/2 1/2to0/2 0/2to0/1 0/1to1/1 1/1to2/1 2/1to3/1 3/1to3/2 3/2to2/2 2/2to1/2 1/2to0/2 0/2to0/1 0/1to1/1 1/1to2/1 2/1to3/1 3/1to3/2 3/2to2/2 2/2to1/2 1/2to0/2 0/2to0/1 0/1to1/1 1/1to2/1 2/1to3/1 3/1to3/2 3/2to2/2 2/2to1/2 1/2to0/2 0/2to0/1 0/1to1/1 1/1to2/1 2/1to3/1 3/1to3/2 3/2to2/2 2/2to1/2 1/2to0/2 0/2to0/1 0/1to1/1 1/1to2/1 2/1to3/1 3/1to3/2 3/2to2/2 2/2to1/2 1/2to0/2 "/>
    <route id="route4" edges="2/2to1/2 1/2to0/2 0/2to0/1 0/1to0/0 0/0to1/0 1/0to1/1 1/1to2/1 2/1to2/2 2/2to1/2 1/2to0/2 0/2to0/1 0/1to0/0 0/0to1/0 1/0to1/1 1/1to2/1 2/1to2/2 2/2to1/2 1/2to0/2 0/2to0/1 0/1to0/0 0/0to1/0 1/0to1/1 1/1to2/1 2/1to2/2 2/2to1/2 1/2to0/2 0/2to0/1 0/1to0/0 0/0to1/0 1/0to1/1 1/1to2/1 2/1to2/2 2/2to1/2 1/2to0/2 0/2to0/1 0/1to0/0 0/0to1/0 1/0to1/1 1/1to2/1 2/1to2/2 2/2to1/2 1/2to0/2 0/2to0/1 0/1to0/0 0/0to1/0 1/0to1/1 1/1to2/1 2/1to2/2 2/2to1/2 1/2to0/2 0/2to0/1 0/1to0/0 0/0to1/0 1/0to1/1 1/1to2/1 2/1to2/2 2/2to1/2 1/2to0/2 0/2to0/1 0/1to0/0 0/0to1/0 1/0to1/1 1/1to2/1 2/1to2/2 2/2to1/2 1/2to0/2 0/2to0/1 0/1to0/0 0/0to1/0 1/0to1/1 1/1to2/1 2/1to2/2 2/2to1/2 1/2to0/2 0/2to0/1 0/1to0/0 0/0to1/0 1/0to1/1 1/1to2/1 2/1to2/2 2/2to1/2 1/2to0/2 0/2to0/1 0/1to0/0 0/0to1/0 1/0to1/1 1/1to2/1 2/1to2/2 2/2to1/2 1/2to0/2 0/2to0/1 0/1to0/0 0/0to1/0 1/0to1/1 1/1to2/1 2/1to2/2 2/2to1/2 1/2to0/2 0/2to0/1 0/1to0/0 0/0to1/0 1/0to1/1 1/1to2/1 2/1to2/2 2/2to1/2 1/2to0/2 0/2to0/1 0/1to0/0 0/0to1/0 1/0to1/1 1/1to2/1 2/1to2/2 2/2to1/2 1/2to0/2 0/2to0/1 0/1to0/0 0/0to1/0 1/0to1/1 1/1to2/1 2/1to2/2 2/2to1/2 1/2to0/2 0/2to0/1 0/1to0/0 0/0to1/0 1/0to1/1 1/1to2/1 2/1to2/2 2/2to1/2 1/2to0/2 0/2to0/1 0/1to0/0 0/0to1/0 1/0to1/1 1/1to2/1 2/1to2/2 2/2to1/2 1/2to0/2 0/2to0/1 0/1to0/0 0/0to1/0 1/0to1/1 1/1to2/1 2/1to2/2 2/2to1/2 1/2to0/2 0/2to0/1 0/1to0/0 0/0to1/0 1/0to1/1 1/1to2/1 2/1to2/2 2/2to1/2 1/2to0/2 0/2to0/1 0/1to0/0 0/0to1/0 1/0to1/1 1/1to2/1 2/1to2/2 2/2to1/2 1/2to0/2 0/2to0/1 0/1to0/0 0/0to1/0 1/0to1/1 1/1to2/1 2/1to2/2 2/2to1/2 1/2to0/2 0/2to0/1 0/1to0/0 0/0to1/0 1/0to1/1 1/1to2/1 2/1to2/2 2/2to1/2 1/2to0/2 0/2to0/1 0/1to0/0 0/0to1/0 1/0to1/1 1/1to2/1 2/1to2/2 2/2to1/2 1/2to0/2 0/2to0/1 0/1to0/0 0/0to1/0 1/0to1/1 1/1to2/1 2/1to2/2 2/2to1/2 1/2to0/2 0/2to0/1 0/1to0/0 0/0to1/0 1/0to1/1 1/1to2/1 2/1to2/2 2/2to1/2 1/2to0/2 0/2to0/1 0/1to0/0 0/0to1/0 1/0to1/1 1/1to2/1 2/1to2/2 2/2to1/2 1/2to0/2 0/2to0/1 0/1to0/0 0/0to1/0 1/0to1/1 1/1to2/1 2/1to2/2 2/2to1/2 1/2to0/2 0/2to0/1 0/1to0/0 0/0to1/0 1/0to1/1 1/1to2/1 2/1to2/2 2/2to1/2 1/2to0/2 0/2to0/1 0/1to0/0 0/0to1/0 1/0to1/1 1/1to2/1 2/1to2/2 2/2to1/2 1/2to0/2 0/2to0/1 0/1to0/0 0/0to1/0 1/0to1/1 1/1to2/1 2/1to2/2 2/2to1/2 1/2to0/2 0/2to0/1 0/1to0/0 0/0to1/0 1/0to1/1 1/1to2/1 2/1to2/2 2/2to1/2 1/2to0/2 0/2to0/1 0/1to0/0 0/0to1/0 1/0to1/1 1/1to2/1 2/1to2/2 2/2to1/2 1/2to0/2 0/2to0/1 0/1to0/0 0/0to1/0 1/0to1/1 1/1to2/1 2/1to2/2 2/2to1/2 1/2to0/2 0/2to0/1 0/1to0/0 0/0to1/0 1/0to1/1 1/1to2/1 2/1to2/2 2/2to1/2 1/2to0/2 0/2to0/1 0/1to0/0 0/0to1/0 1/0to1/1 1/1to2/1 2/1to2/2 2/2to1/2 1/2to0/2 0/2to0/1 0/1to0/0 0/0to1/0 1/0to1/1 1/1to2/1 2/1to2/2 2/2to1/2 1/2to0/2 0/2to0/1 0/1to0/0 0/0to1/0 1/0to1/1 1/1to2/1 2/1to2/2 2/2to1/2 1/2to0/2 0/2to0/1 0/1to0/0 0/0to1/0 1/0to1/1 1/1to2/1 2/1to2/2 2/2to1/2 1/2to0/2 0/2to0/1 0/1to0/0 0/0to1/0 1/0to1/1 1/1to2/1 2/1to2/2 2/2to1/2 1/2to0/2 0/2to0/1 0/1to0/0 0/0to1/0 1/0to1/1 1/1to2/1 2/1to2/2 2/2to1/2 1/2to0/2 0/2to0/1 0/1to0/0 0/0to1/0 1/0to1/1 1/1to2/1 2/1to2/2 2/2to1/2 1/2to0/2 0/2to0/1 0/1to0/0 0/0to1/0 1/0to1/1 1/1to2/1 2/1to2/2 2/2to1/2 1/2to0/2 0/2to0/1 0/1to0/0 0/0to1/0 1/0to1/1 1/1to2/1 2/1to2/2 2/2to1/2 1/2to0/2 0/2to0/1 0/1to0/0 0/0to1/0 1/0to1/1 1/1to2/1 2/1to2/2 2/2to1/2 1/2to0/2 0/2to0/1 0/1to0/0 0/0to1/0 1/0to1/1 1/1to2/1 2/1to2/2 2/2to1/2 1/2to0/2 0/2to0/1 0/1to0/0 0/0to1/0 1/0to1/1 1/1to2/1 2/1to2/2 2/2to1/2 1/2to0/2 0/2to0/1 0/1to0/0 0/0to1/0 1/0to1/1 1/1to2/1 2/1to2/2 2/2to1/2 1/2to0/2 0/2to0/1 0/1to0/0 0/0to1/0 1/0to1/1 1/1to2/1 2/1to2/2 2/2to1/2 1/2to0/2 0/2to0/1 0/1to0/0 0/0to1/0 1/0to1/1 1/1to2/1 2/1to2/2 2/2to1/2 1/2to0/2 0/2to0/1 0/1to0/0 0/0to1/0 1/0to1/1 1/1to2/1 2/1to2/2 2/2to1/2 1/2to0/2 0/2to0/1 0/1to0/0 0/0to1/0 1/0to1/1 1/1to2/1 2/1to2/2 "/>
    <route id="route5" edges="1/3to2/3 2/3to2/2 2/2to1/2 1/2to1/1 1/1to0/1 0/1to0/2 0/2to0/3 0/3to1/3 1/3to2/3 2/3to2/2 2/2to1/2 1/2to1/1 1/1to0/1 0/1to0/2 0/2to0/3 0/3to1/3 1/3to2/3 2/3to2/2 2/2to1/2 1/2to1/1 1/1to0/1 0/1to0/2 0/2to0/3 0/3to1/3 1/3to2/3 2/3to2/2 2/2to1/2 1/2to1/1 1/1to0/1 0/1to0/2 0/2to0/3 0/3to1/3 1/3to2/3 2/3to2/2 2/2to1/2 1/2to1/1 1/1to0/1 0/1to0/2 0/2to0/3 0/3to1/3 1/3to2/3 2/3to2/2 2/2to1/2 1/2to1/1 1/1to0/1 0/1to0/2 0/2to0/3 0/3to1/3 1/3to2/3 2/3to2/2 2/2to1/2 1/2to1/1 1/1to0/1 0/1to0/2 0/2to0/3 0/3to1/3 1/3to2/3 2/3to2/2 2/2to1/2 1/2to1/1 1/1to0/1 0/1to0/2 0/2to0/3 0/3to1/3 1/3to2/3 2/3to2/2 2/2to1/2 1/2to1/1 1/1to0/1 0/1to0/2 0/2to0/3 0/3to1/3 1/3to2/3 2/3to2/2 2/2to1/2 1/2to1/1 1/1to0/1 0/1to0/2 0/2to0/3 0/3to1/3 1/3to2/3 2/3to2/2 2/2to1/2 1/2to1/1 1/1to0/1 0/1to0/2 0/2to0/3 0/3to1/3 1/3to2/3 2/3to2/2 2/2to1/2 1/2to1/1 1/1to0/1 0/1to0/2 0/2to0/3 0/3to1/3 1/3to2/3 2/3to2/2 2/2to1/2 1/2to1/1 1/1to0/1 0/1to0/2 0/2to0/3 0/3to1/3 1/3to2/3 2/3to2/2 2/2to1/2 1/2to1/1 1/1to0/1 0/1to0/2 0/2to0/3 0/3to1/3 1/3to2/3 2/3to2/2 2/2to1/2 1/2to1/1 1/1to0/1 0/1to0/2 0/2to0/3 0/3to1/3 1/3to2/3 2/3to2/2 2/2to1/2 1/2to1/1 1/1to0/1 0/1to0/2 0/2to0/3 0/3to1/3 1/3to2/3 2/3to2/2 2/2to1/2 1/2to1/1 1/1to0/1 0/1to0/2 0/2to0/3 0/3to1/3 1/3to2/3 2/3to2/2 2/2to1/2 1/2to1/1 1/1to0/1 0/1to0/2 0/2to0/3 0/3to1/3 1/3to2/3 2/3to2/2 2/2to1/2 1/2to1/1 1/1to0/1 0/1to0/2 0/2to0/3 0/3to1/3 1/3to2/3 2/3to2/2 2/2to1/2 1/2to1/1 1/1to0/1 0/1to0/2 0/2to0/3 0/3to1/3 1/3to2/3 2/3to2/2 2/2to1/2 1/2to1/1 1/1to0/1 0/1to0/2 0/2to0/3 0/3to1/3 1/3to2/3 2/3to2/2 2/2to1/2 1/2to1/1 1/1to0/1 0/1to0/2 0/2to0/3 0/3to1/3 1/3to2/3 2/3to2/2 2/2to1/2 1/2to1/1 1/1to0/1 0/1to0/2 0/2to0/3 0/3to1/3 1/3to2/3 2/3to2/2 2/2to1/2 1/2to1/1 1/1to0/1 0/1to0/2 0/2to0/3 0/3to1/3 1/3to2/3 2/3to2/2 2/2to1/2 1/2to1/1 1/1to0/1 0/1to0/2 0/2to0/3 0/3to1/3 1/3to2/3 2/3to2/2 2/2to1/2 1/2to1/1 1/1to0/1 0/1to0/2 0/2to0/3 0/3to1/3 1/3to2/3 2/3to2/2 2/2to1/2 1/2to1/1 1/1to0/1 0/1to0/2 0/2to0/3 0/3to1/3 1/3to2/3 2/3to2/2 2/2to1/2 1/2to1/1 1/1to0/1 0/1to0/2 0/2to0/3 0/3to1/3 1/3to2/3 2/3to2/2 2/2to1/2 1/2to1/1 1/1to0/1 0/1to0/2 0/2to0/3 0/3to1/3 1/3to2/3 2/3to2/2 2/2to1/2 1/2to1/1 1/1to0/1 0/1to0/2 0/2to0/3 0/3to1/3 1/3to2/3 2/3to2/2 2/2to1/2 1/2to1/1 1/1to0/1 0/1to0/2 0/2to0/3 0/3to1/3 1/3to2/3 2/3to2/2 2/2to1/2 1/2to1/1 1/1to0/1 0/1to0/2 0/2to0/3 0/3to1/3 1/3to2/3 2/3to2/2 2/2to1/2 1/2to1/1 1/1to0/1 0/1to0/2 0/2to0/3 0/3to1/3 1/3to2/3 2/3to2/2 2/2to1/2 1/2to1/1 1/1to0/1 0/1to0/2 0/2to0/3 0/3to1/3 1/3to2/3 2/3to2/2 2/2to1/2 1/2to1/1 1/1to0/1 0/1to0/2 0/2to0/3 0/3to1/3 1/3to2/3 2/3to2/2 2/2to1/2 1/2to1/1 1/1to0/1 0/1to0/2 0/2to0/3 0/3to1/3 1/3to2/3 2/3to2/2 2/2to1/2 1/2to1/1 1/1to0/1 0/1to0/2 0/2to0/3 0/3to1/3 1/3to2/3 2/3to2/2 2/2to1/2 1/2to1/1 1/1to0/1 0/1to0/2 0/2to0/3 0/3to1/3 1/3to2/3 2/3to2/2 2/2to1/2 1/2to1/1 1/1to0/1 0/1to0/2 0/2to0/3 0/3to1/3 1/3to2/3 2/3to2/2 2/2to1/2 1/2to1/1 1/1to0/1 0/1to0/2 0/2to0/3 0/3to1/3 1/3to2/3 2/3to2/2 2/2to1/2 1/2to1/1 1/1to0/1 0/1to0/2 0/2to0/3 0/3to1/3 1/3to2/3 2/3to2/2 2/2to1/2 1/2to1/1 1/1to0/1 0/1to0/2 0/2to0/3 0/3to1/3 1/3to2/3 2/3to2/2 2/2to1/2 1/2to1/1 1/1to0/1 0/1to0/2 0/2to0/3 0/3to1/3 1/3to2/3 2/3to2/2 2/2to1/2 1/2to1/1 1/1to0/1 0/1to0/2 0/2to0/3 0/3to1/3 1/3to2/3 2/3to2/2 2/2to1/2 1/2to1/1 1/1to0/1 0/1to0/2 0/2to0/3 0/3to1/3 1/3to2/3 2/3to2/2 2/2to1/2 1/2to1/1 1/1to0/1 0/1to0/2 0/2to0/3 0/3to1/3 1/3to2/3 2/3to2/2 2/2to1/2 1/2to1/1 1/1to0/1 0/1to0/2 0/2to0/3 0/3to1/3 1/3to2/3 2/3to2/2 2/2to1/2 1/2to1/1 1/1to0/1 0/1to0/2 0/2to0/3 0/3to1/3 1/3to2/3 2/3to2/2 2/2to1/2 1/2to1/1 1/1to0/1 0/1to0/2 0/2to0/3 0/3to1/3 1/3to2/3 2/3to2/2 2/2to1/2 1/2to1/1 1/1to0/1 0/1to0/2 0/2to0/3 0/3to1/3 1/3to2/3 2/3to2/2 2/2to1/2 1/2to1/1 1/1to0/1 0/1to0/2 0/2to0/3 0/3to1/3 "/>
    <route id="route6" edges="2/1to2/2 2/2to3/2 3/2to3/1 3/1to4/1 4/1to4/2 4/2to3/2 3/2to3/1 3/1to2/1 2/1to2/2 2/2to3/2 3/2to3/1 3/1to4/1 4/1to4/2 4/2to3/2 3/2to3/1 3/1to2/1 2/1to2/2 2/2to3/2 3/2to3/1 3/1to4/1 4/1to4/2 4/2to3/2 3/2to3/1 3/1to2/1 2/1to2/2 2/2to3/2 3/2to3/1 3/1to4/1 4/1to4/2 4/2to3/2 3/2to3/1 3/1to2/1 2/1to2/2 2/2to3/2 3/2to3/1 3/1to4/1 4/1to4/2 4/2to3/2 3/2to3/1 3/1to2/1 2/1to2/2 2/2to3/2 3/2to3/1 3/1to4/1 4/1to4/2 4/2to3/2 3/2to3/1 3/1to2/1 2/1to2/2 2/2to3/2 3/2to3/1 3/1to4/1 4/1to4/2 4/2to3/2 3/2to3/1 3/1to2/1 2/1to2/2 2/2to3/2 3/2to3/1 3/1to4/1 4/1to4/2 4/2to3/2 3/2to3/1 3/1to2/1 2/1to2/2 2/2to3/2 3/2to3/1 3/1to4/1 4/1to4/2 4/2to3/2 3/2to3/1 3/1to2/1 2/1to2/2 2/2to3/2 3/2to3/1 3/1to4/1 4/1to4/2 4/2to3/2 3/2to3/1 3/1to2/1 2/1to2/2 2/2to3/2 3/2to3/1 3/1to4/1 4/1to4/2 4/2to3/2 3/2to3/1 3/1to2/1 2/1to2/2 2/2to3/2 3/2to3/1 3/1to4/1 4/1to4/2 4/2to3/2 3/2to3/1 3/1to2/1 2/1to2/2 2/2to3/2 3/2to3/1 3/1to4/1 4/1to4/2 4/2to3/2 3/2to3/1 3/1to2/1 2/1to2/2 2/2to3/2 3/2to3/1 3/1to4/1 4/1to4/2 4/2to3/2 3/2to3/1 3/1to2/1 2/1to2/2 2/2to3/2 3/2to3/1 3/1to4/1 4/1to4/2 4/2to3/2 3/2to3/1 3/1to2/1 2/1to2/2 2/2to3/2 3/2to3/1 3/1to4/1 4/1to4/2 4/2to3/2 3/2to3/1 3/1to2/1 2/1to2/2 2/2to3/2 3/2to3/1 3/1to4/1 4/1to4/2 4/2to3/2 3/2to3/1 3/1to2/1 2/1to2/2 2/2to3/2 3/2to3/1 3/1to4/1 4/1to4/2 4/2to3/2 3/2to3/1 3/1to2/1 2/1to2/2 2/2to3/2 3/2to3/1 3/1to4/1 4/1to4/2 4/2to3/2 3/2to3/1 3/1to2/1 2/1to2/2 2/2to3/2 3/2to3/1 3/1to4/1 4/1to4/2 4/2to3/2 3/2to3/1 3/1to2/1 2/1to2/2 2/2to3/2 3/2to3/1 3/1to4/1 4/1to4/2 4/2to3/2 3/2to3/1 3/1to2/1 2/1to2/2 2/2to3/2 3/2to3/1 3/1to4/1 4/1to4/2 4/2to3/2 3/2to3/1 3/1to2/1 2/1to2/2 2/2to3/2 3/2to3/1 3/1to4/1 4/1to4/2 4/2to3/2 3/2to3/1 3/1to2/1 2/1to2/2 2/2to3/2 3/2to3/1 3/1to4/1 4/1to4/2 4/2to3/2 3/2to3/1 3/1to2/1 2/1to2/2 2/2to3/2 3/2to3/1 3/1to4/1 4/1to4/2 4/2to3/2 3/2to3/1 3/1to2/1 2/1to2/2 2/2to3/2 3/2to3/1 3/1to4/1 4/1to4/2 4/2to3/2 3/2to3/1 3/1to2/1 2/1to2/2 2/2to3/2 3/2to3/1 3/1to4/1 4/1to4/2 4/2to3/2 3/2to3/1 3/1to2/1 2/1to2/2 2/2to3/2 3/2to3/1 3/1to4/1 4/1to4/2 4/2to3/2 3/2to3/1 3/1to2/1 2/1to2/2 2/2to3/2 3/2to3/1 3/1to4/1 4/1to4/2 4/2to3/2 3/2to3/1 3/1to2/1 2/1to2/2 2/2to3/2 3/2to3/1 3/1to4/1 4/1to4/2 4/2to3/2 3/2to3/1 3/1to2/1 2/1to2/2 2/2to3/2 3/2to3/1 3/1to4/1 4/1to4/2 4/2to3/2 3/2to3/1 3/1to2/1 2/1to2/2 2/2to3/2 3/2to3/1 3/1to4/1 4/1to4/2 4/2to3/2 3/2to3/1 3/1to2/1 2/1to2/2 2/2to3/2 3/2to3/1 3/1to4/1 4/1to4/2 4/2to3/2 3/2to3/1 3/1to2/1 2/1to2/2 2/2to3/2 3/2to3/1 3/1to4/1 4/1to4/2 4/2to3/2 3/2to3/1 3/1to2/1 2/1to2/2 2/2to3/2 3/2to3/1 3/1to4/1 4/1to4/2 4/2to3/2 3/2to3/1 3/1to2/1 2/1to2/2 2/2to3/2 3/2to3/1 3/1to4/1 4/1to4/2 4/2to3/2 3/2to3/1 3/1to2/1 2/1to2/2 2/2to3/2 3/2to3/1 3/1to4/1 4/1to4/2 4/2to3/2 3/2to3/1 3/1to2/1 2/1to2/2 2/2to3/2 3/2to3/1 3/1to4/1 4/1to4/2 4/2to3/2 3/2to3/1 3/1to2/1 2/1to2/2 2/2to3/2 3/2to3/1 3/1to4/1 4/1to4/2 4/2to3/2 3/2to3/1 3/1to2/1 2/1to2/2 2/2to3/2 3/2to3/1 3/1to4/1 4/1to4/2 4/2to3/2 3/2to3/1 3/1to2/1 2/1to2/2 2/2to3/2 3/2to3/1 3/1to4/1 4/1to4/2 4/2to3/2 3/2to3/1 3/1to2/1 2/1to2/2 2/2to3/2 3/2to3/1 3/1to4/1 4/1to4/2 4/2to3/2 3/2to3/1 3/1to2/1 2/1to2/2 2/2to3/2 3/2to3/1 3/1to4/1 4/1to4/2 4/2to3/2 3/2to3/1 3/1to2/1 2/1to2/2 2/2to3/2 3/2to3/1 3/1to4/1 4/1to4/2 4/2to3/2 3/2to3/1 3/1to2/1 2/1to2/2 2/2to3/2 3/2to3/1 3/1to4/1 4/1to4/2 4/2to3/2 3/2to3/1 3/1to2/1 2/1to2/2 2/2to3/2 3/2to3/1 3/1to4/1 4/1to4/2 4/2to3/2 3/2to3/1 3/1to2/1 2/1to2/2 2/2to3/2 3/2to3/1 3/1to4/1 4/1to4/2 4/2to3/2 3/2to3/1 3/1to2/1 2/1to2/2 2/2to3/2 3/2to3/1 3/1to4/1 4/1to4/2 4/2to3/2 3/2to3/1 3/1to2/1 2/1to2/2 2/2to3/2 3/2to3/1 3/1to4/1 4/1to4/2 4/2to3/2 3/2to3/1 3/1to2/1 2/1to2/2 2/2to3/2 3/2to3/1 3/1to4/1 4/1to4/2 4/2to3/2 3/2to3/1 3/1to2/1 2/1to2/2 2/2to3/2 3/2to3/1 3/1to4/1 4/1to4/2 4/2to3/2 3/2to3/1 3/1to2/1 "/>
    <route id="route7" edges="0/2to0/3 0/3to1/3 1/3to2/3 2/3to3/3 3/3to3/2 3/2to2/2 2/2to1/2 1/2to0/2 0/2to0/3 0/3to1/3 1/3to2/3 2/3to3/3 3/3to3/2 3/2to2/2 2/2to1/2 1/2to0/2 0/2to0/3 0/3to1/3 1/3to2/3 2/3to3/3 3/3to3/2 3/2to2/2 2/2to1/2 1/2to0/2 0/2to0/3 0/3to1/3 1/3to2/3 2/3to3/3 3/3to3/2 3/2to2/2 2/2to1/2 1/2to0/2 0/2to0/3 0/3to1/3 1/3to2/3 2/3to3/3 3/3to3/2 3/2to2/2 2/2to1/2 1/2to0/2 0/2to0/3 0/3to1/3 1/3to2/3 2/3to3/3 3/3to3/2 3/2to2/2 2/2to1/2 1/2to0/2 0/2to0/3 0/3to1/3 1/3to2/3 2/3to3/3 3/3to3/2 3/2to2/2 2/2to1/2 1/2to0/2 0/2to0/3 0/3to1/3 1/3to2/3 2/3to3/3 3/3to3/2 3/2to2/2 2/2to1/2 1/2to0/2 0/2to0/3 0/3to1/3 1/3to2/3 2/3to3/3 3/3to3/2 3/2to2/2 2/2to1/2 1/2to0/2 0/2to0/3 0/3to1/3 1/3to2/3 2/3to3/3 3/3to3/2 3/2to2/2 2/2to1/2 1/2to0/2 0/2to0/3 0/3to1/3 1/3to2/3 2/3to3/3 3/3to3/2 3/2to2/2 2/2to1/2 1/2to0/2 0/2to0/3 0/3to1/3 1/3to2/3 2/3to3/3 3/3to3/2 3/2to2/2 2/2to1/2 1/2to0/2 0/2to0/3 0/3to1/3 1/3to2/3 2/3to3/3 3/3to3/2 3/2to2/2 2/2to1/2 1/2to0/2 0/2to0/3 0/3to1/3 1/3to2/3 2/3to3/3 3/3to3/2 3/2to2/2 2/2to1/2 1/2to0/2 0/2to0/3 0/3to1/3 1/3to2/3 2/3to3/3 3/3to3/2 3/2to2/2 2/2to1/2 1/2to0/2 0/2to0/3 0/3to1/3 1/3to2/3 2/3to3/3 3/3to3/2 3/2to2/2 2/2to1/2 1/2to0/2 0/2to0/3 0/3to1/3 1/3to2/3 2/3to3/3 3/3to3/2 3/2to2/2 2/2to1/2 1/2to0/2 0/2to0/3 0/3to1/3 1/3to2/3 2/3to3/3 3/3to3/2 3/2to2/2 2/2to1/2 1/2to0/2 0/2to0/3 0/3to1/3 1/3to2/3 2/3to3/3 3/3to3/2 3/2to2/2 2/2to1/2 1/2to0/2 0/2to0/3 0/3to1/3 1/3to2/3 2/3to3/3 3/3to3/2 3/2to2/2 2/2to1/2 1/2to0/2 0/2to0/3 0/3to1/3 1/3to2/3 2/3to3/3 3/3to3/2 3/2to2/2 2/2to1/2 1/2to0/2 0/2to0/3 0/3to1/3 1/3to2/3 2/3to3/3 3/3to3/2 3/2to2/2 2/2to1/2 1/2to0/2 0/2to0/3 0/3to1/3 1/3to2/3 2/3to3/3 3/3to3/2 3/2to2/2 2/2to1/2 1/2to0/2 0/2to0/3 0/3to1/3 1/3to2/3 2/3to3/3 3/3to3/2 3/2to2/2 2/2to1/2 1/2to0/2 0/2to0/3 0/3to1/3 1/3to2/3 2/3to3/3 3/3to3/2 3/2to2/2 2/2to1/2 1/2to0/2 0/2to0/3 0/3to1/3 1/3to2/3 2/3to3/3 3/3to3/2 3/2to2/2 2/2to1/2 1/2to0/2 0/2to0/3 0/3to1/3 1/3to2/3 2/3to3/3 3/3to3/2 3/2to2/2 2/2to1/2 1/2to0/2 0/2to0/3 0/3to1/3 1/3to2/3 2/3to3/3 3/3to3/2 3/2to2/2 2/2to1/2 1/2to0/2 0/2to0/3 0/3to1/3 1/3to2/3 2/3to3/3 3/3to3/2 3/2to2/2 2/2to1/2 1/2to0/2 0/2to0/3 0/3to1/3 1/3to2/3 2/3to3/3 3/3to3/2 3/2to2/2 2/2to1/2 1/2to0/2 0/2to0/3 0/3to1/3 1/3to2/3 2/3to3/3 3/3to3/2 3/2to2/2 2/2to1/2 1/2to0/2 0/2to0/3 0/3to1/3 1/3to2/3 2/3to3/3 3/3to3/2 3/2to2/2 2/2to1/2 1/2to0/2 0/2to0/3 0/3to1/3 1/3to2/3 2/3to3/3 3/3to3/2 3/2to2/2 2/2to1/2 1/2to0/2 0/2to0/3 0/3to1/3 1/3to2/3 2/3to3/3 3/3to3/2 3/2to2/2 2/2to1/2 1/2to0/2 0/2to0/3 0/3to1/3 1/3to2/3 2/3to3/3 3/3to3/2 3/2to2/2 2/2to1/2 1/2to0/2 0/2to0/3 0/3to1/3 1/3to2/3 2/3to3/3 3/3to3/2 3/2to2/2 2/2to1/2 1/2to0/2 0/2to0/3 0/3to1/3 1/3to2/3 2/3to3/3 3/3to3/2 3/2to2/2 2/2to1/2 1/2to0/2 0/2to0/3 0/3to1/3 1/3to2/3 2/3to3/3 3/3to3/2 3/2to2/2 2/2to1/2 1/2to0/2 0/2to0/3 0/3to1/3 1/3to2/3 2/3to3/3 3/3to3/2 3/2to2/2 2/2to1/2 1/2to0/2 0/2to0/3 0/3to1/3 1/3to2/3 2/3to3/3 3/3to3/2 3/2to2/2 2/2to1/2 1/2to0/2 0/2to0/3 0/3to1/3 1/3to2/3 2/3to3/3 3/3to3/2 3/2to2/2 2/2to1/2 1/2to0/2 0/2to0/3 0/3to1/3 1/3to2/3 2/3to3/3 3/3to3/2 3/2to2/2 2/2to1/2 1/2to0/2 0/2to0/3 0/3to1/3 1/3to2/3 2/3to3/3 3/3to3/2 3/2to2/2 2/2to1/2 1/2to0/2 0/2to0/3 0/3to1/3 1/3to2/3 2/3to3/3 3/3to3/2 3/2to2/2 2/2to1/2 1/2to0/2 0/2to0/3 0/3to1/3 1/3to2/3 2/3to3/3 3/3to3/2 3/2to2/2 2/2to1/2 1/2to0/2 0/2to0/3 0/3to1/3 1/3to2/3 2/3to3/3 3/3to3/2 3/2to2/2 2/2to1/2 1/2to0/2 0/2to0/3 0/3to1/3 1/3to2/3 2/3to3/3 3/3to3/2 3/2to2/2 2/2to1/2 1/2to0/2 0/2to0/3 0/3to1/3 1/3to2/3 2/3to3/3 3/3to3/2 3/2to2/2 2/2to1/2 1/2to0/2 0/2to0/3 0/3to1/3 1/3to2/3 2/3to3/3 3/3to3/2 3/2to2/2 2/2to1/2 1/2to0/2 0/2to0/3 0/3to1/3 1/3to2/3 2/3to3/3 3/3to3/2 3/2to2/2 2/2to1/2 1/2to0/2 0/2to0/3 0/3to1/3 1/3to2/3 2/3to3/3 3/3to3/2 3/2to2/2 2/2to1/2 1/2to0/2 "/>
    <route id="route8" edges="1/2to1/1 1/1to2/1 2/1to2/2 2/2to2/3 2/3to2/4 2/4to1/4 1/4to1/3 1/3to1/2 1/2to1/1 1/1to2/1 2/1to2/2 2/2to2/3 2/3to2/4 2/4to1/4 1/4to1/3 1/3to1/2 1/2to1/1 1/1to2/1 2/1to2/2 2/2to2/3 2/3to2/4 2/4to1/4 1/4to1/3 1/3to1/2 1/2to1/1 1/1to2/1 2/1to2/2 2/2to2/3 2/3to2/4 2/4to1/4 1/4to1/3 1/3to1/2 1/2to1/1 1/1to2/1 2/1to2/2 2/2to2/3 2/3to2/4 2/4to1/4 1/4to1/3 1/3to1/2 1/2to1/1 1/1to2/1 2/1to2/2 2/2to2/3 2/3to2/4 2/4to1/4 1/4to1/3 1/3to1/2 1/2to1/1 1/1to2/1 2/1to2/2 2/2to2/3 2/3to2/4 2/4to1/4 1/4to1/3 1/3to1/2 1/2to1/1 1/1to2/1 2/1to2/2 2/2to2/3 2/3to2/4 2/4to1/4 1/4to1/3 1/3to1/2 1/2to1/1 1/1to2/1 2/1to2/2 2/2to2/3 2/3to2/4 2/4to1/4 1/4to1/3 1/3to1/2 1/2to1/1 1/1to2/1 2/1to2/2 2/2to2/3 2/3to2/4 2/4to1/4 1/4to1/3 1/3to1/2 1/2to1/1 1/1to2/1 2/1to2/2 2/2to2/3 2/3to2/4 2/4to1/4 1/4to1/3 1/3to1/2 1/2to1/1 1/1to2/1 2/1to2/2 2/2to2/3 2/3to2/4 2/4to1/4 1/4to1/3 1/3to1/2 1/2to1/1 1/1to2/1 2/1to2/2 2/2to2/3 2/3to2/4 2/4to1/4 1/4to1/3 1/3to1/2 1/2to1/1 1/1to2/1 2/1to2/2 2/2to2/3 2/3to2/4 2/4to1/4 1/4to1/3 1/3to1/2 1/2to1/1 1/1to2/1 2/1to2/2 2/2to2/3 2/3to2/4 2/4to1/4 1/4to1/3 1/3to1/2 1/2to1/1 1/1to2/1 2/1to2/2 2/2to2/3 2/3to2/4 2/4to1/4 1/4to1/3 1/3to1/2 1/2to1/1 1/1to2/1 2/1to2/2 2/2to2/3 2/3to2/4 2/4to1/4 1/4to1/3 1/3to1/2 1/2to1/1 1/1to2/1 2/1to2/2 2/2to2/3 2/3to2/4 2/4to1/4 1/4to1/3 1/3to1/2 1/2to1/1 1/1to2/1 2/1to2/2 2/2to2/3 2/3to2/4 2/4to1/4 1/4to1/3 1/3to1/2 1/2to1/1 1/1to2/1 2/1to2/2 2/2to2/3 2/3to2/4 2/4to1/4 1/4to1/3 1/3to1/2 1/2to1/1 1/1to2/1 2/1to2/2 2/2to2/3 2/3to2/4 2/4to1/4 1/4to1/3 1/3to1/2 1/2to1/1 1/1to2/1 2/1to2/2 2/2to2/3 2/3to2/4 2/4to1/4 1/4to1/3 1/3to1/2 1/2to1/1 1/1to2/1 2/1to2/2 2/2to2/3 2/3to2/4 2/4to1/4 1/4to1/3 1/3to1/2 1/2to1/1 1/1to2/1 2/1to2/2 2/2to2/3 2/3to2/4 2/4to1/4 1/4to1/3 1/3to1/2 1/2to1/1 1/1to2/1 2/1to2/2 2/2to2/3 2/3to2/4 2/4to1/4 1/4to1/3 1/3to1/2 1/2to1/1 1/1to2/1 2/1to2/2 2/2to2/3 2/3to2/4 2/4to1/4 1/4to1/3 1/3to1/2 1/2to1/1 1/1to2/1 2/1to2/2 2/2to2/3 2/3to2/4 2/4to1/4 1/4to1/3 1/3to1/2 1/2to1/1 1/1to2/1 2/1to2/2 2/2to2/3 2/3to2/4 2/4to1/4 1/4to1/3 1/3to1/2 1/2to1/1 1/1to2/1 2/1to2/2 2/2to2/3 2/3to2/4 2/4to1/4 1/4to1/3 1/3to1/2 1/2to1/1 1/1to2/1 2/1to2/2 2/2to2/3 2/3to2/4 2/4to1/4 1/4to1/3 1/3to1/2 1/2to1/1 1/1to2/1 2/1to2/2 2/2to2/3 2/3to2/4 2/4to1/4 1/4to1/3 1/3to1/2 1/2to1/1 1/1to2/1 2/1to2/2 2/2to2/3 2/3to2/4 2/4to1/4 1/4to1/3 1/3to1/2 1/2to1/1 1/1to2/1 2/1to2/2 2/2to2/3 2/3to2/4 2/4to1/4 1/4to1/3 1/3to1/2 1/2to1/1 1/1to2/1 2/1to2/2 2/2to2/3 2/3to2/4 2/4to1/4 1/4to1/3 1/3to1/2 1/2to1/1 1/1to2/1 2/1to2/2 2/2to2/3 2/3to2/4 2/4to1/4 1/4to1/3 1/3to1/2 1/2to1/1 1/1to2/1 2/1to2/2 2/2to2/3 2/3to2/4 2/4to1/4 1/4to1/3 1/3to1/2 1/2to1/1 1/1to2/1 2/1to2/2 2/2to2/3 2/3to2/4 2/4to1/4 1/4to1/3 1/3to1/2 1/2to1/1 1/1to2/1 2/1to2/2 2/2to2/3 2/3to2/4 2/4to1/4 1/4to1/3 1/3to1/2 1/2to1/1 1/1to2/1 2/1to2/2 2/2to2/3 2/3to2/4 2/4to1/4 1/4to1/3 1/3to1/2 1/2to1/1 1/1to2/1 2/1to2/2 2/2to2/3 2/3to2/4 2/4to1/4 1/4to1/3 1/3to1/2 1/2to1/1 1/1to2/1 2/1to2/2 2/2to2/3 2/3to2/4 2/4to1/4 1/4to1/3 1/3to1/2 1/2to1/1 1/1to2/1 2/1to2/2 2/2to2/3 2/3to2/4 2/4to1/4 1/4to1/3 1/3to1/2 1/2to1/1 1/1to2/1 2/1to2/2 2/2to2/3 2/3to2/4 2/4to1/4 1/4to1/3 1/3to1/2 1/2to1/1 1/1to2/1 2/1to2/2 2/2to2/3 2/3to2/4 2/4to1/4 1/4to1/3 1/3to1/2 1/2to1/1 1/1to2/1 2/1to2/2 2/2to2/3 2/3to2/4 2/4to1/4 1/4to1/3 1/3to1/2 1/2to1/1 1/1to2/1 2/1to2/2 2/2to2/3 2/3to2/4 2/4to1/4 1/4to1/3 1/3to1/2 1/2to1/1 1/1to2/1 2/1to2/2 2/2to2/3 2/3to2/4 2/4to1/4 1/4to1/3 1/3to1/2 1/2to1/1 1/1to2/1 2/1to2/2 2/2to2/3 2/3to2/4 2/4to1/4 1/4to1/3 1/3to1/2 1/2to1/1 1/1to2/1 2/1to2/2 2/2to2/3 2/3to2/4 2/4to1/4 1/4to1/3 1/3to1/2 1/2to1/1 1/1to2/1 2/1to2/2 2/2to2/3 2/3to2/4 2/4to1/4 1/4to1/3 1/3to1/2 1/2to1/1 1/1to2/1 2/1to2/2 2/2to2/3 2/3to2/4 2/4to1/4 1/4to1/3 1/3to1/2 "/>