<routes>

    <!--
    File with 105 (5 T, 100 P) routes
    goAndBack: false
    Routes T (1 to 5): "random"
    Routes P (6 to 105): 2 km (2000 m)
    Begin insert 5 T and 20 P
        After this, insert 20 P by each 120 seconds
    fileOutput: vehDist.rou00.xml
    lineStart: 0
    -->

    <route id="route001" edges="1/9to0/9 0/9to0/a 0/ato1/a 1/ato2/a 2/ato3/a 3/ato4/a 4/ato5/a 5/ato6/a 6/ato7/a 7/ato8/a 8/ato8/b 8/bto7/b 7/bto7/a 7/ato7/9 7/9to7/8 7/8to7/7 7/7to7/6 7/6to7/5 7/5to7/4 7/4to7/3 7/3to7/2 7/2to7/1 7/1to7/0 7/0to8/0 8/0to9/0 9/0toa/0 a/0toa/1 a/1toa/2 a/2tob/2 b/2tob/3 b/3toa/3 a/3to9/3 9/3to8/3 8/3to7/3 7/3to6/3 6/3to5/3 5/3to4/3 4/3to4/4 4/4to4/5 4/5to4/6 4/6to3/6 3/6to3/5 3/5to2/5 2/5to2/6 2/6to2/7 2/7to2/8 2/8to2/9 2/9to2/a 2/ato3/a 3/ato4/a 4/ato4/9 4/9to4/8 4/8to4/7 4/7to4/6 4/6to4/5 4/5to5/5 5/5to5/6 5/6to6/6 6/6to6/5 6/5to6/4 6/4to6/3 6/3to7/3 7/3to7/2 7/2to6/2"/>
    <route id="route002" edges="8/6to9/6 9/6to9/5 9/5to8/5 8/5to7/5 7/5to6/5 6/5to5/5 5/5to4/5 4/5to3/5 3/5to2/5 2/5to1/5 1/5to1/4 1/4to1/3 1/3to1/2 1/2to1/1 1/1to0/1 0/1to0/2 0/2to0/3 0/3to0/4 0/4to0/5 0/5to0/6 0/6to0/7 0/7to1/7 1/7to2/7 2/7to3/7 3/7to4/7 4/7to5/7 5/7to6/7 6/7to7/7 7/7to8/7 8/7to9/7 9/7toa/7 a/7toa/6 a/6toa/5 a/5toa/4 a/4toa/3 a/3tob/3 b/3toc/3 c/3toc/2 c/2tob/2 b/2toa/2 a/2toa/3 a/3toa/4 a/4toa/5 a/5toa/6 a/6toa/7 a/7to9/7 9/7to9/8 9/8to8/8 8/8to7/8 7/8to7/7 7/7to7/6 7/6to7/5 7/5to7/4 7/4to7/3 7/3to7/2 7/2to7/1 7/1to6/1 6/1to6/2 6/2to7/2 7/2to8/2 8/2to9/2 9/2toa/2 a/2toa/3 a/3toa/4"/>
    <route id="route003" edges="0/7to1/7 1/7to1/8 1/8to1/9 1/9to1/a 1/ato1/b 1/bto0/b 0/bto0/a 0/ato0/9 0/9to0/8 0/8to1/8 1/8to2/8 2/8to3/8 3/8to4/8 4/8to4/7 4/7to4/6 4/6to4/5 4/5to4/4 4/4to4/3 4/3to5/3 5/3to6/3 6/3to7/3 7/3to8/3 8/3to8/2 8/2to9/2 9/2toa/2 a/2toa/3 a/3toa/4 a/4toa/5 a/5toa/6 a/6toa/7 a/7toa/8 a/8toa/9 a/9toa/a a/atoa/b a/btoa/c a/ctob/c b/ctob/b b/btoa/b a/bto9/b 9/bto8/b 8/bto8/a 8/ato7/a 7/ato7/b 7/bto8/b 8/bto8/a 8/ato8/9 8/9to8/8 8/8to8/7 8/7to8/6 8/6to8/5 8/5to8/4 8/4to7/4 7/4to7/5 7/5to8/5 8/5to9/5 9/5toa/5 a/5toa/6 a/6toa/7 a/7toa/8 a/8toa/9 a/9toa/a a/atoa/b a/btob/b b/btoc/b"/>
    <route id="route004" edges="2/8to3/8 3/8to3/7 3/7to3/6 3/6to3/5 3/5to3/4 3/4to3/3 3/3to3/2 3/2to3/1 3/1to3/0 3/0to4/0 4/0to5/0 5/0to6/0 6/0to7/0 7/0to7/1 7/1to7/2 7/2to8/2 8/2to9/2 9/2toa/2 a/2toa/3 a/3toa/4 a/4toa/5 a/5toa/6 a/6to9/6 9/6to8/6 8/6to7/6 7/6to6/6 6/6to6/5 6/5to6/4 6/4to6/3 6/3to6/2 6/2to6/1 6/1to5/1 5/1to5/2 5/2to6/2 6/2to7/2 7/2to8/2 8/2to9/2 9/2toa/2 a/2toa/1 a/1tob/1 b/1tob/2 b/2toa/2 a/2toa/3 a/3toa/4 a/4toa/5 a/5to9/5 9/5to9/6 9/6to8/6 8/6to7/6 7/6to6/6 6/6to5/6 5/6to4/6 4/6to3/6 3/6to3/5 3/5to3/4 3/4to3/3 3/3to3/2 3/2to3/1 3/1to3/0 3/0to4/0 4/0to4/1 4/1to4/2 4/2to4/3 4/3to4/4"/>
    <route id="route005" edges="9/1toa/1 a/1toa/2 a/2to9/2 9/2to8/2 8/2to7/2 7/2to6/2 6/2to6/3 6/3to6/4 6/4to5/4 5/4to5/3 5/3to4/3 4/3to3/3 3/3to3/4 3/4to2/4 2/4to2/3 2/3to2/2 2/2to2/1 2/1to3/1 3/1to3/0 3/0to4/0 4/0to4/1 4/1to4/2 4/2to4/3 4/3to4/4 4/4to4/5 4/5to4/6 4/6to5/6 5/6to6/6 6/6to7/6 7/6to8/6 8/6to9/6 9/6to9/7 9/7to8/7 8/7to7/7 7/7to6/7 6/7to5/7 5/7to5/8 5/8to5/9 5/9to5/a 5/ato5/b 5/bto4/b 4/bto4/a 4/ato5/a 5/ato6/a 6/ato7/a 7/ato8/a 8/ato9/a 9/atoa/a a/atoa/9 a/9toa/8 a/8toa/7 a/7toa/6 a/6toa/5 a/5toa/4 a/4toa/3 a/3toa/2 a/2toa/1 a/1to9/1 9/1to9/2 9/2toa/2 a/2toa/3 a/3toa/4 a/4toa/5 a/5toa/6"/>

    <route id="route006" edges="b/6toc/6 c/6toc/7 c/7tob/7 b/7toa/7 a/7to9/7 9/7to8/7 8/7to7/7 7/7to6/7"/>
    <route id="route007" edges="7/bto7/a 7/ato6/a 6/ato6/9 6/9to6/8 6/8to6/7 6/7to6/6 6/6to6/5 6/5to6/4"/>
    <route id="route008" edges="3/cto3/b 3/bto3/a 3/ato4/a 4/ato5/a 5/ato6/a 6/ato7/a 7/ato7/9 7/9to6/9"/>
    <route id="route009" edges="1/1to0/1 0/1to0/2 0/2to0/3 0/3to0/4 0/4to0/5 0/5to0/6 0/6to1/6 1/6to2/6"/>
    <route id="route010" edges="0/7to1/7 1/7to1/8 1/8to1/9 1/9to1/a 1/ato1/b 1/bto1/c 1/cto2/c 2/cto3/c"/>
    <route id="route011" edges="3/8to2/8 2/8to2/7 2/7to2/6 2/6to2/5 2/5to2/4 2/4to2/3 2/3to2/2 2/2to2/1"/>
    <route id="route012" edges="4/cto4/b 4/bto4/a 4/ato5/a 5/ato5/9 5/9to4/9 4/9to4/8 4/8to4/7 4/7to4/6"/>
    <route id="route013" edges="5/7to4/7 4/7to4/8 4/8to5/8 5/8to6/8 6/8to7/8 7/8to8/8 8/8to8/9 8/9to7/9"/>
    <route id="route014" edges="1/bto2/b 2/bto2/a 2/ato2/9 2/9to2/8 2/8to2/7 2/7to2/6 2/6to3/6 3/6to3/7"/>
    <route id="route015" edges="b/ctoc/c c/ctoc/b c/btob/b b/btoa/b a/bto9/b 9/bto8/b 8/bto7/b 7/bto6/b"/>
    <route id="route016" edges="c/5toc/6 c/6tob/6 b/6tob/5 b/5tob/4 b/4tob/3 b/3toc/3 c/3toc/4 c/4tob/4"/>
    <route id="route017" edges="2/4to3/4 3/4to3/5 3/5to3/6 3/6to3/7 3/7to3/8 3/8to3/9 3/9to3/a 3/ato3/b"/>
    <route id="route018" edges="5/1to4/1 4/1to3/1 3/1to2/1 2/1to1/1 1/1to1/2 1/2to0/2 0/2to0/3 0/3to0/4"/>
    <route id="route019" edges="4/3to4/4 4/4to5/4 5/4to6/4 6/4to7/4 7/4to8/4 8/4to9/4 9/4toa/4 a/4toa/3"/>
    <route id="route020" edges="3/9to3/8 3/8to3/7 3/7to3/6 3/6to3/5 3/5to3/4 3/4to3/3 3/3to3/2 3/2to3/1"/>
    <route id="route021" edges="c/3toc/2 c/2tob/2 b/2toa/2 a/2to9/2 9/2to8/2 8/2to7/2 7/2to7/3 7/3to7/4"/>
    <route id="route022" edges="1/cto2/c 2/cto2/b 2/bto1/b 1/bto0/b 0/bto0/a 0/ato0/9 0/9to0/8 0/8to0/7"/>
    <route id="route023" edges="a/4toa/3 a/3to9/3 9/3to8/3 8/3to7/3 7/3to6/3 6/3to5/3 5/3to4/3 4/3to3/3"/>
    <route id="route024" edges="6/0to7/0 7/0to7/1 7/1to6/1 6/1to5/1 5/1to4/1 4/1to3/1 3/1to2/1 2/1to2/2"/>
    <route id="route025" edges="a/9to9/9 9/9to8/9 8/9to7/9 7/9to6/9 6/9to5/9 5/9to5/8 5/8to5/7 5/7to5/6"/>
    <route id="route026" edges="7/3to8/3 8/3to8/2 8/2to7/2 7/2to6/2 6/2to5/2 5/2to4/2 4/2to3/2 3/2to2/2"/>
    <route id="route027" edges="9/7to8/7 8/7to8/8 8/8to9/8 9/8toa/8 a/8tob/8 b/8tob/9 b/9tob/a b/atob/b"/>
    <route id="route028" edges="1/5to1/6 1/6to1/7 1/7to1/8 1/8to1/9 1/9to2/9 2/9to3/9 3/9to4/9 4/9to5/9"/>
    <route id="route029" edges="8/8to9/8 9/8to9/7 9/7to8/7 8/7to7/7 7/7to6/7 6/7to5/7 5/7to4/7 4/7to4/6"/>
    <route id="route030" edges="2/8to3/8 3/8to4/8 4/8to5/8 5/8to6/8 6/8to7/8 7/8to8/8 8/8to9/8 9/8toa/8"/>
    <route id="route031" edges="9/6to9/5 9/5to8/5 8/5to7/5 7/5to6/5 6/5to5/5 5/5to5/4 5/4to5/3 5/3to4/3"/>
    <route id="route032" edges="c/5tob/5 b/5toa/5 a/5to9/5 9/5to8/5 8/5to7/5 7/5to6/5 6/5to5/5 5/5to4/5"/>
    <route id="route033" edges="5/5to6/5 6/5to7/5 7/5to8/5 8/5to9/5 9/5toa/5 a/5tob/5 b/5tob/4 b/4toa/4"/>
    <route id="route034" edges="a/0tob/0 b/0tob/1 b/1toa/1 a/1to9/1 9/1to8/1 8/1to7/1 7/1to6/1 6/1to5/1"/>
    <route id="route035" edges="a/4tob/4 b/4tob/5 b/5toa/5 a/5to9/5 9/5to8/5 8/5to7/5 7/5to6/5 6/5to5/5"/>
    <route id="route036" edges="c/8toc/7 c/7tob/7 b/7toa/7 a/7to9/7 9/7to8/7 8/7to7/7 7/7to6/7 6/7to5/7"/>
    <route id="route037" edges="6/ato7/a 7/ato7/9 7/9to6/9 6/9to5/9 5/9to4/9 4/9to3/9 3/9to3/8 3/8to3/7"/>
    <route id="route038" edges="1/2to2/2 2/2to2/1 2/1to2/0 2/0to3/0 3/0to4/0 4/0to5/0 5/0to6/0 6/0to6/1"/>
    <route id="route039" edges="c/2tob/2 b/2tob/3 b/3tob/4 b/4tob/5 b/5tob/6 b/6tob/7 b/7tob/8 b/8tob/9"/>
    <route id="route040" edges="c/1toc/0 c/0tob/0 b/0toa/0 a/0to9/0 9/0to8/0 8/0to7/0 7/0to7/1 7/1to7/2"/>
    <route id="route041" edges="2/bto3/b 3/bto3/a 3/ato2/a 2/ato1/a 1/ato0/a 0/ato0/9 0/9to0/8 0/8to0/7"/>
    <route id="route042" edges="7/bto7/c 7/cto8/c 8/cto9/c 9/ctoa/c a/ctoa/b a/btoa/a a/atoa/9 a/9toa/8"/>
    <route id="route043" edges="2/ato2/9 2/9to2/8 2/8to2/7 2/7to2/6 2/6to2/5 2/5to3/5 3/5to4/5 4/5to5/5"/>
    <route id="route044" edges="7/8to6/8 6/8to6/7 6/7to7/7 7/7to8/7 8/7to9/7 9/7toa/7 a/7toa/6 a/6toa/5"/>
    <route id="route045" edges="b/atoa/a a/atoa/b a/bto9/b 9/bto9/c 9/cto8/c 8/cto7/c 7/cto6/c 6/cto6/b"/>
    <route id="route046" edges="9/2to8/2 8/2to8/3 8/3to9/3 9/3toa/3 a/3toa/4 a/4toa/5 a/5tob/5 b/5toc/5"/>
    <route id="route047" edges="7/7to7/6 7/6to6/6 6/6to6/5 6/5to5/5 5/5to5/6 5/6to4/6 4/6to3/6 3/6to2/6"/>
    <route id="route048" edges="4/4to4/5 4/5to3/5 3/5to3/4 3/4to3/3 3/3to3/2 3/2to4/2 4/2to4/1 4/1to3/1"/>
    <route id="route049" edges="9/1to8/1 8/1to8/0 8/0to9/0 9/0toa/0 a/0toa/1 a/1to9/1 9/1to9/2 9/2toa/2"/>
    <route id="route050" edges="4/3to4/4 4/4to4/5 4/5to4/6 4/6to4/7 4/7to4/8 4/8to4/9 4/9to4/a 4/ato4/b"/>
    <route id="route051" edges="2/ato2/9 2/9to3/9 3/9to4/9 4/9to5/9 5/9to6/9 6/9to7/9 7/9to8/9 8/9to9/9"/>
    <route id="route052" edges="b/btob/c b/ctoa/c a/cto9/c 9/cto8/c 8/cto7/c 7/cto6/c 6/cto5/c 5/cto4/c"/>
    <route id="route053" edges="8/bto9/b 9/bto9/a 9/ato8/a 8/ato7/a 7/ato6/a 6/ato5/a 5/ato4/a 4/ato3/a"/>
    <route id="route054" edges="9/cto8/c 8/cto7/c 7/cto6/c 6/cto5/c 5/cto4/c 4/cto3/c 3/cto2/c 2/cto1/c"/>
    <route id="route055" edges="6/9to7/9 7/9to7/a 7/ato6/a 6/ato5/a 5/ato4/a 4/ato3/a 3/ato2/a 2/ato1/a"/>
    <route id="route056" edges="9/5to9/4 9/4to8/4 8/4to7/4 7/4to6/4 6/4to5/4 5/4to4/4 4/4to3/4 3/4to2/4"/>
    <route id="route057" edges="0/8to1/8 1/8to1/7 1/7to1/6 1/6to2/6 2/6to2/5 2/5to1/5 1/5to1/4 1/4to1/3"/>
    <route id="route058" edges="1/5to1/6 1/6to1/7 1/7to1/8 1/8to1/9 1/9to2/9 2/9to3/9 3/9to4/9 4/9to5/9"/>
    <route id="route059" edges="7/5to6/5 6/5to5/5 5/5to4/5 4/5to3/5 3/5to2/5 2/5to1/5 1/5to1/6 1/6to1/7"/>
    <route id="route060" edges="b/3tob/4 b/4toa/4 a/4to9/4 9/4to8/4 8/4to7/4 7/4to6/4 6/4to5/4 5/4to4/4"/>
    <route id="route061" edges="a/atob/a b/atob/9 b/9toa/9 a/9to9/9 9/9to8/9 8/9to7/9 7/9to6/9 6/9to5/9"/>
    <route id="route062" edges="a/2tob/2 b/2tob/3 b/3tob/4 b/4tob/5 b/5tob/6 b/6tob/7 b/7tob/8 b/8tob/9"/>
    <route id="route063" edges="b/5tob/4 b/4toa/4 a/4to9/4 9/4to8/4 8/4to7/4 7/4to6/4 6/4to5/4 5/4to4/4"/>
    <route id="route064" edges="3/4to4/4 4/4to4/5 4/5to4/6 4/6to4/7 4/7to4/8 4/8to5/8 5/8to6/8 6/8to7/8"/>
    <route id="route065" edges="8/ato7/a 7/ato7/9 7/9to7/8 7/8to7/7 7/7to8/7 8/7to8/6 8/6to7/6 7/6to6/6"/>
    <route id="route066" edges="7/6to7/5 7/5to8/5 8/5to8/6 8/6to9/6 9/6toa/6 a/6toa/5 a/5to9/5 9/5to8/5"/>
    <route id="route067" edges="7/1to7/2 7/2to7/3 7/3to7/4 7/4to7/5 7/5to7/6 7/6to7/7 7/7to7/8 7/8to7/9"/>
    <route id="route068" edges="1/9to2/9 2/9to2/8 2/8to2/7 2/7to3/7 3/7to4/7 4/7to5/7 5/7to6/7 6/7to7/7"/>
    <route id="route069" edges="6/3to5/3 5/3to5/2 5/2to6/2 6/2to7/2 7/2to8/2 8/2to9/2 9/2toa/2 a/2toa/1"/>
    <route id="route070" edges="4/0to4/1 4/1to3/1 3/1to2/1 2/1to2/2 2/2to2/3 2/3to2/4 2/4to2/5 2/5to2/6"/>
    <route id="route071" edges="0/0to0/1 0/1to0/2 0/2to0/3 0/3to0/4 0/4to0/5 0/5to0/6 0/6to0/7 0/7to0/8"/>
    <route id="route072" edges="4/0to3/0 3/0to3/1 3/1to3/2 3/2to3/3 3/3to3/4 3/4to3/5 3/5to3/6 3/6to3/7"/>
    <route id="route073" edges="8/8to8/7 8/7to7/7 7/7to6/7 6/7to6/6 6/6to6/5 6/5to6/4 6/4to6/3 6/3to6/2"/>
    <route id="route074" edges="1/cto2/c 2/cto2/b 2/bto2/a 2/ato2/9 2/9to2/8 2/8to2/7 2/7to2/6 2/6to3/6"/>
    <route id="route075" edges="5/6to4/6 4/6to4/7 4/7to5/7 5/7to6/7 6/7to7/7 7/7to8/7 8/7to8/8 8/8to7/8"/>
    <route id="route076" edges="a/0tob/0 b/0tob/1 b/1toa/1 a/1toa/2 a/2toa/3 a/3toa/4 a/4toa/5 a/5toa/6"/>
    <route id="route077" edges="1/ato1/b 1/bto2/b 2/bto2/a 2/ato2/9 2/9to2/8 2/8to2/7 2/7to2/6 2/6to2/5"/>
    <route id="route078" edges="5/cto6/c 6/cto7/c 7/cto8/c 8/cto9/c 9/ctoa/c a/ctoa/b a/btoa/a a/atoa/9"/>
    <route id="route079" edges="c/6toc/7 c/7tob/7 b/7toa/7 a/7to9/7 9/7to8/7 8/7to8/6 8/6to8/5 8/5to8/4"/>
    <route id="route080" edges="1/8to1/7 1/7to2/7 2/7to3/7 3/7to4/7 4/7to5/7 5/7to6/7 6/7to7/7 7/7to8/7"/>
    <route id="route081" edges="2/6to2/7 2/7to3/7 3/7to3/6 3/6to3/5 3/5to3/4 3/4to3/3 3/3to3/2 3/2to4/2"/>
    <route id="route082" edges="a/4to9/4 9/4to8/4 8/4to7/4 7/4to6/4 6/4to6/5 6/5to6/6 6/6to6/7 6/7to6/8"/>
    <route id="route083" edges="6/8to6/7 6/7to5/7 5/7to4/7 4/7to4/6 4/6to4/5 4/5to4/4 4/4to3/4 3/4to3/5"/>
    <route id="route084" edges="5/2to5/1 5/1to6/1 6/1to7/1 7/1to7/2 7/2to6/2 6/2to5/2 5/2to4/2 4/2to3/2"/>
    <route id="route085" edges="7/7to8/7 8/7to9/7 9/7toa/7 a/7toa/6 a/6toa/5 a/5toa/4 a/4toa/3 a/3toa/2"/>
    <route id="route086" edges="8/1to7/1 7/1to7/2 7/2to7/3 7/3to7/4 7/4to7/5 7/5to7/6 7/6to8/6 8/6to9/6"/>
    <route id="route087" edges="7/3to6/3 6/3to6/4 6/4to7/4 7/4to8/4 8/4to9/4 9/4toa/4 a/4toa/5 a/5tob/5"/>
    <route id="route088" edges="7/1to7/2 7/2to8/2 8/2to9/2 9/2toa/2 a/2tob/2 b/2toc/2 c/2toc/1 c/1tob/1"/>
    <route id="route089" edges="7/4to7/3 7/3to6/3 6/3to6/4 6/4to6/5 6/5to6/6 6/6to6/7 6/7to6/8 6/8to6/9"/>
    <route id="route090" edges="c/atoc/b c/btob/b b/btoa/b a/bto9/b 9/bto8/b 8/bto7/b 7/bto6/b 6/bto5/b"/>
    <route id="route091" edges="0/cto0/b 0/bto0/a 0/ato0/9 0/9to1/9 1/9to2/9 2/9to2/8 2/8to3/8 3/8to3/9"/>
    <route id="route092" edges="3/9to3/8 3/8to3/7 3/7to3/6 3/6to3/5 3/5to3/4 3/4to3/3 3/3to4/3 4/3to5/3"/>
    <route id="route093" edges="4/7to3/7 3/7to3/8 3/8to3/9 3/9to3/a 3/ato3/b 3/bto4/b 4/bto5/b 5/bto6/b"/>
    <route id="route094" edges="1/bto1/c 1/cto2/c 2/cto2/b 2/bto2/a 2/ato2/9 2/9to2/8 2/8to2/7 2/7to2/6"/>
    <route id="route095" edges="6/1to7/1 7/1to7/0 7/0to6/0 6/0to5/0 5/0to5/1 5/1to4/1 4/1to4/2 4/2to4/3"/>
    <route id="route096" edges="5/5to5/4 5/4to6/4 6/4to6/5 6/5to6/6 6/6to6/7 6/7to6/8 6/8to7/8 7/8to7/7"/>
    <route id="route097" edges="1/ato2/a 2/ato2/9 2/9to2/8 2/8to2/7 2/7to2/6 2/6to2/5 2/5to2/4 2/4to3/4"/>
    <route id="route098" edges="a/7toa/8 a/8to9/8 9/8to8/8 8/8to7/8 7/8to6/8 6/8to5/8 5/8to4/8 4/8to3/8"/>
    <route id="route099" edges="8/3to7/3 7/3to7/4 7/4to7/5 7/5to8/5 8/5to9/5 9/5toa/5 a/5toa/4 a/4to9/4"/>
    <route id="route100" edges="8/4to7/4 7/4to7/3 7/3to7/2 7/2to8/2 8/2to9/2 9/2to9/3 9/3to8/3 8/3to7/3"/>
    <route id="route101" edges="2/9to3/9 3/9to3/8 3/8to3/7 3/7to3/6 3/6to3/5 3/5to3/4 3/4to3/3 3/3to3/2"/>
    <route id="route102" edges="c/btob/b b/btoa/b a/bto9/b 9/bto8/b 8/bto7/b 7/bto6/b 6/bto5/b 5/bto5/a"/>
    <route id="route103" edges="8/4to8/5 8/5to9/5 9/5toa/5 a/5tob/5 b/5toc/5 c/5toc/6 c/6tob/6 b/6toa/6"/>
    <route id="route104" edges="3/3to2/3 2/3to1/3 1/3to0/3 0/3to0/2 0/2to1/2 1/2to1/3 1/3to1/4 1/4to2/4"/>
    <route id="route105" edges="b/3toa/3 a/3to9/3 9/3to8/3 8/3to7/3 7/3to6/3 6/3to5/3 5/3to4/3 4/3to3/3"/>

    <!-- line_end: 347 -->

    <!-- T => Taxi/Táxi -->
    <vType id="T" accel="3" decel="5" sigma="0.000000" length="2.5" minGap="2.5" maxSpeed="16.67" color="1,1,0"/>

        <vehicle depart="0" departPos="0" arrivalPos="max" departSpeed="0" id="veh001" route="route001" type="T"/>
        <vehicle depart="0" departPos="0" arrivalPos="max" departSpeed="0" id="veh002" route="route002" type="T"/>
        <vehicle depart="0" departPos="0" arrivalPos="max" departSpeed="0" id="veh003" route="route003" type="T"/>
        <vehicle depart="0" departPos="0" arrivalPos="max" departSpeed="0" id="veh004" route="route004" type="T"/>
        <vehicle depart="0" departPos="0" arrivalPos="max" departSpeed="0" id="veh005" route="route005" type="T"/>

    <!-- P => Private car/Carro de passeio -->
    <vType id="P" accel="3" decel="5" sigma="0.000000" length="2.5" minGap="2.5" maxSpeed="16.67" color="0,1,0"/>

    <!-- http://sumo.dlr.de/wiki/Definition_of_Vehicles,_Vehicle_Types,_and_Routes -->
        <vehicle depart="0" departPos="0" arrivalPos="max" departSpeed="0" id="veh006" route="route006" type="P"/>
        <vehicle depart="0" departPos="0" arrivalPos="max" departSpeed="0" id="veh007" route="route007" type="P"/>
        <vehicle depart="0" departPos="0" arrivalPos="max" departSpeed="0" id="veh008" route="route008" type="P"/>
        <vehicle depart="0" departPos="0" arrivalPos="max" departSpeed="0" id="veh009" route="route009" type="P"/>
        <vehicle depart="0" departPos="0" arrivalPos="max" departSpeed="0" id="veh010" route="route010" type="P"/>
        <vehicle depart="0" departPos="0" arrivalPos="max" departSpeed="0" id="veh011" route="route011" type="P"/>
        <vehicle depart="0" departPos="0" arrivalPos="max" departSpeed="0" id="veh012" route="route012" type="P"/>
        <vehicle depart="0" departPos="0" arrivalPos="max" departSpeed="0" id="veh013" route="route013" type="P"/>
        <vehicle depart="0" departPos="0" arrivalPos="max" departSpeed="0" id="veh014" route="route014" type="P"/>
        <vehicle depart="0" departPos="0" arrivalPos="max" departSpeed="0" id="veh015" route="route015" type="P"/>
        <vehicle depart="0" departPos="0" arrivalPos="max" departSpeed="0" id="veh016" route="route016" type="P"/>
        <vehicle depart="0" departPos="0" arrivalPos="max" departSpeed="0" id="veh017" route="route017" type="P"/>
        <vehicle depart="0" departPos="0" arrivalPos="max" departSpeed="0" id="veh018" route="route018" type="P"/>
        <vehicle depart="0" departPos="0" arrivalPos="max" departSpeed="0" id="veh019" route="route019" type="P"/>
        <vehicle depart="0" departPos="0" arrivalPos="max" departSpeed="0" id="veh020" route="route020" type="P"/>
        <vehicle depart="0" departPos="0" arrivalPos="max" departSpeed="0" id="veh021" route="route021" type="P"/>
        <vehicle depart="0" departPos="0" arrivalPos="max" departSpeed="0" id="veh022" route="route022" type="P"/>
        <vehicle depart="0" departPos="0" arrivalPos="max" departSpeed="0" id="veh023" route="route023" type="P"/>
        <vehicle depart="0" departPos="0" arrivalPos="max" departSpeed="0" id="veh024" route="route024" type="P"/>
        <vehicle depart="0" departPos="0" arrivalPos="max" departSpeed="0" id="veh025" route="route025" type="P"/>
        <vehicle depart="120" departPos="0" arrivalPos="max" departSpeed="0" id="veh026" route="route026" type="P"/>
        <vehicle depart="120" departPos="0" arrivalPos="max" departSpeed="0" id="veh027" route="route027" type="P"/>
        <vehicle depart="120" departPos="0" arrivalPos="max" departSpeed="0" id="veh028" route="route028" type="P"/>
        <vehicle depart="120" departPos="0" arrivalPos="max" departSpeed="0" id="veh029" route="route029" type="P"/>
        <vehicle depart="120" departPos="0" arrivalPos="max" departSpeed="0" id="veh030" route="route030" type="P"/>
        <vehicle depart="120" departPos="0" arrivalPos="max" departSpeed="0" id="veh031" route="route031" type="P"/>
        <vehicle depart="120" departPos="0" arrivalPos="max" departSpeed="0" id="veh032" route="route032" type="P"/>
        <vehicle depart="120" departPos="0" arrivalPos="max" departSpeed="0" id="veh033" route="route033" type="P"/>
        <vehicle depart="120" departPos="0" arrivalPos="max" departSpeed="0" id="veh034" route="route034" type="P"/>
        <vehicle depart="120" departPos="0" arrivalPos="max" departSpeed="0" id="veh035" route="route035" type="P"/>
        <vehicle depart="120" departPos="0" arrivalPos="max" departSpeed="0" id="veh036" route="route036" type="P"/>
        <vehicle depart="120" departPos="0" arrivalPos="max" departSpeed="0" id="veh037" route="route037" type="P"/>
        <vehicle depart="120" departPos="0" arrivalPos="max" departSpeed="0" id="veh038" route="route038" type="P"/>
        <vehicle depart="120" departPos="0" arrivalPos="max" departSpeed="0" id="veh039" route="route039" type="P"/>
        <vehicle depart="120" departPos="0" arrivalPos="max" departSpeed="0" id="veh040" route="route040" type="P"/>
        <vehicle depart="120" departPos="0" arrivalPos="max" departSpeed="0" id="veh041" route="route041" type="P"/>
        <vehicle depart="120" departPos="0" arrivalPos="max" departSpeed="0" id="veh042" route="route042" type="P"/>
        <vehicle depart="120" departPos="0" arrivalPos="max" departSpeed="0" id="veh043" route="route043" type="P"/>
        <vehicle depart="120" departPos="0" arrivalPos="max" departSpeed="0" id="veh044" route="route044" type="P"/>
        <vehicle depart="120" departPos="0" arrivalPos="max" departSpeed="0" id="veh045" route="route045" type="P"/>
        <vehicle depart="240" departPos="0" arrivalPos="max" departSpeed="0" id="veh046" route="route046" type="P"/>
        <vehicle depart="240" departPos="0" arrivalPos="max" departSpeed="0" id="veh047" route="route047" type="P"/>
        <vehicle depart="240" departPos="0" arrivalPos="max" departSpeed="0" id="veh048" route="route048" type="P"/>
        <vehicle depart="240" departPos="0" arrivalPos="max" departSpeed="0" id="veh049" route="route049" type="P"/>
        <vehicle depart="240" departPos="0" arrivalPos="max" departSpeed="0" id="veh050" route="route050" type="P"/>
        <vehicle depart="240" departPos="0" arrivalPos="max" departSpeed="0" id="veh051" route="route051" type="P"/>
        <vehicle depart="240" departPos="0" arrivalPos="max" departSpeed="0" id="veh052" route="route052" type="P"/>
        <vehicle depart="240" departPos="0" arrivalPos="max" departSpeed="0" id="veh053" route="route053" type="P"/>
        <vehicle depart="240" departPos="0" arrivalPos="max" departSpeed="0" id="veh054" route="route054" type="P"/>
        <vehicle depart="240" departPos="0" arrivalPos="max" departSpeed="0" id="veh055" route="route055" type="P"/>
        <vehicle depart="240" departPos="0" arrivalPos="max" departSpeed="0" id="veh056" route="route056" type="P"/>
        <vehicle depart="240" departPos="0" arrivalPos="max" departSpeed="0" id="veh057" route="route057" type="P"/>
        <vehicle depart="240" departPos="0" arrivalPos="max" departSpeed="0" id="veh058" route="route058" type="P"/>
        <vehicle depart="240" departPos="0" arrivalPos="max" departSpeed="0" id="veh059" route="route059" type="P"/>
        <vehicle depart="240" departPos="0" arrivalPos="max" departSpeed="0" id="veh060" route="route060" type="P"/>
        <vehicle depart="240" departPos="0" arrivalPos="max" departSpeed="0" id="veh061" route="route061" type="P"/>
        <vehicle depart="240" departPos="0" arrivalPos="max" departSpeed="0" id="veh062" route="route062" type="P"/>
        <vehicle depart="240" departPos="0" arrivalPos="max" departSpeed="0" id="veh063" route="route063" type="P"/>
        <vehicle depart="240" departPos="0" arrivalPos="max" departSpeed="0" id="veh064" route="route064" type="P"/>
        <vehicle depart="240" departPos="0" arrivalPos="max" departSpeed="0" id="veh065" route="route065" type="P"/>
        <vehicle depart="360" departPos="0" arrivalPos="max" departSpeed="0" id="veh066" route="route066" type="P"/>
        <vehicle depart="360" departPos="0" arrivalPos="max" departSpeed="0" id="veh067" route="route067" type="P"/>
        <vehicle depart="360" departPos="0" arrivalPos="max" departSpeed="0" id="veh068" route="route068" type="P"/>
        <vehicle depart="360" departPos="0" arrivalPos="max" departSpeed="0" id="veh069" route="route069" type="P"/>
        <vehicle depart="360" departPos="0" arrivalPos="max" departSpeed="0" id="veh070" route="route070" type="P"/>
        <vehicle depart="360" departPos="0" arrivalPos="max" departSpeed="0" id="veh071" route="route071" type="P"/>
        <vehicle depart="360" departPos="0" arrivalPos="max" departSpeed="0" id="veh072" route="route072" type="P"/>
        <vehicle depart="360" departPos="0" arrivalPos="max" departSpeed="0" id="veh073" route="route073" type="P"/>
        <vehicle depart="360" departPos="0" arrivalPos="max" departSpeed="0" id="veh074" route="route074" type="P"/>
        <vehicle depart="360" departPos="0" arrivalPos="max" departSpeed="0" id="veh075" route="route075" type="P"/>
        <vehicle depart="360" departPos="0" arrivalPos="max" departSpeed="0" id="veh076" route="route076" type="P"/>
        <vehicle depart="360" departPos="0" arrivalPos="max" departSpeed="0" id="veh077" route="route077" type="P"/>
        <vehicle depart="360" departPos="0" arrivalPos="max" departSpeed="0" id="veh078" route="route078" type="P"/>
        <vehicle depart="360" departPos="0" arrivalPos="max" departSpeed="0" id="veh079" route="route079" type="P"/>
        <vehicle depart="360" departPos="0" arrivalPos="max" departSpeed="0" id="veh080" route="route080" type="P"/>
        <vehicle depart="360" departPos="0" arrivalPos="max" departSpeed="0" id="veh081" route="route081" type="P"/>
        <vehicle depart="360" departPos="0" arrivalPos="max" departSpeed="0" id="veh082" route="route082" type="P"/>
        <vehicle depart="360" departPos="0" arrivalPos="max" departSpeed="0" id="veh083" route="route083" type="P"/>
        <vehicle depart="360" departPos="0" arrivalPos="max" departSpeed="0" id="veh084" route="route084" type="P"/>
        <vehicle depart="360" departPos="0" arrivalPos="max" departSpeed="0" id="veh085" route="route085" type="P"/>
        <vehicle depart="480" departPos="0" arrivalPos="max" departSpeed="0" id="veh086" route="route086" type="P"/>
        <vehicle depart="480" departPos="0" arrivalPos="max" departSpeed="0" id="veh087" route="route087" type="P"/>
        <vehicle depart="480" departPos="0" arrivalPos="max" departSpeed="0" id="veh088" route="route088" type="P"/>
        <vehicle depart="480" departPos="0" arrivalPos="max" departSpeed="0" id="veh089" route="route089" type="P"/>
        <vehicle depart="480" departPos="0" arrivalPos="max" departSpeed="0" id="veh090" route="route090" type="P"/>
        <vehicle depart="480" departPos="0" arrivalPos="max" departSpeed="0" id="veh091" route="route091" type="P"/>
        <vehicle depart="480" departPos="0" arrivalPos="max" departSpeed="0" id="veh092" route="route092" type="P"/>
        <vehicle depart="480" departPos="0" arrivalPos="max" departSpeed="0" id="veh093" route="route093" type="P"/>
        <vehicle depart="480" departPos="0" arrivalPos="max" departSpeed="0" id="veh094" route="route094" type="P"/>
        <vehicle depart="480" departPos="0" arrivalPos="max" departSpeed="0" id="veh095" route="route095" type="P"/>
        <vehicle depart="480" departPos="0" arrivalPos="max" departSpeed="0" id="veh096" route="route096" type="P"/>
        <vehicle depart="480" departPos="0" arrivalPos="max" departSpeed="0" id="veh097" route="route097" type="P"/>
        <vehicle depart="480" departPos="0" arrivalPos="max" departSpeed="0" id="veh098" route="route098" type="P"/>
        <vehicle depart="480" departPos="0" arrivalPos="max" departSpeed="0" id="veh099" route="route099" type="P"/>
        <vehicle depart="480" departPos="0" arrivalPos="max" departSpeed="0" id="veh100" route="route100" type="P"/>
        <vehicle depart="480" departPos="0" arrivalPos="max" departSpeed="0" id="veh101" route="route101" type="P"/>
        <vehicle depart="480" departPos="0" arrivalPos="max" departSpeed="0" id="veh102" route="route102" type="P"/>
        <vehicle depart="480" departPos="0" arrivalPos="max" departSpeed="0" id="veh103" route="route103" type="P"/>
        <vehicle depart="480" departPos="0" arrivalPos="max" departSpeed="0" id="veh104" route="route104" type="P"/>
        <vehicle depart="480" departPos="0" arrivalPos="max" departSpeed="0" id="veh105" route="route105" type="P"/>

</routes>