[General]
cmdenv-express-mode = true
cmdenv-autoflush = true
cmdenv-status-frequency = 10000000s

# Experiments variables
#warmup-period = 20s
repeat=1
seed-set = ${repetition}

# Tkenv config
tkenv-default-config = nodebug
tkenv-default-run = 1
tkenv-image-path = bitmaps

ned-path = .
network = vehDist_rsu

##########################################################
#            Simulation parameters                       #
##########################################################
debug-on-errors = true
print-undisposed = false

sim-time-limit = 600s

#record-eventlog = true #to generate a .log file

**.scalar-recording = true
**.vector-recording = true

**.debug = false
**.coreDebug = false

*.playgroundSizeX = 1100m
*.playgroundSizeY = 1100m
*.playgroundSizeZ = 50m

##########################################################
# Annotation parameters                                  #
##########################################################
*.annotations.draw = false

##########################################################
# Obstacle parameters                                    #
##########################################################
*.obstacles.debug = false

##########################################################
#            WorldUtility parameters                     #
##########################################################
*.world.useTorus = false
*.world.use2D = false

##########################################################
#            TraCIScenarioManager parameters             #
##########################################################
*.manager.updateInterval = 0.1s
*.manager.host = "localhost"
*.manager.port = 9999
*.manager.moduleType = "org.car2x.veins.nodes.Car"
*.manager.moduleName = "car"
*.manager.moduleDisplayString = ""
*.manager.autoShutdown = true
*.manager.margin = 25
*.manager.launchConfig = xmldoc("vehDist.launchd.xml")
*.manager.numVehicles = 50 #Veins will be responsible for holding this number of vehicle in the scenario

##########################################################
#                       RSU SETTINGS                     #
##########################################################

#*.rsu[0].mobility.x = 473
#*.rsu[0].mobility.y = 480
#*.rsu[0].mobility.z = 3

#*.rsu[0].mobility.x = 525
#*.rsu[0].mobility.y = 525
#*.rsu[0].mobility.z = 3

*.rsu[*].mobility.x = 525
*.rsu[*].mobility.y = 525
*.rsu[*].mobility.z = 3

# test Jonh
*.car[*].appl.target_x = 525
*.car[*].appl.target_y = 525
*.rsu[*].appl.target_x = 525
*.rsu[*].appl.target_y = 525

*.car[*].appl.timeUpdatePosition = 10s
*.car[*].appl.sendUpdatePos = true
*.car[*].appl.dataInterval= 6s

*.rsu[*].applType = "vehDist_rsu"
*.rsu[*].appl.debug = false
*.rsu[*].appl.headerLength = 256 bit
*.rsu[*].appl.sendBeacons = false
*.rsu[*].appl.dataOnSch = false
*.rsu[*].appl.sendData = false
*.rsu[*].appl.beaconInterval = 14s
*.rsu[*].appl.beaconPriority = 3
*.rsu[*].appl.dataPriority = 2
*.rsu[*].appl.maxOffset = 0.005s
#*.rsu[*].appl.sendSummaryVectorInterval = 15s #define the minimum slide window length among contacts to send new version of summary vector
#*.rsu[*].appl.maximumMfcvEpidemicBufferSize = 300 #define the maximum buffer size (in number of messages) that a node is willing to allocate for mfcv_epidemic messages
*.rsu[*].appl.hopCount = 10 #define the maximum number of hopes that a message can be forward before reach the target
#*.rsu[*].appl.hopCount.result-recording-modes = +histogram
#*.rsu[*].appl.numMessageReceived.result-recording-modes = +histogram
#*.rsu[*].appl.delayTime.result-recording-modes = +histogram

##########################################################
#            11p specific parameters                     #
#                    NIC-Settings                        #
##########################################################
*.connectionManager.pMax = 1.3mW # 20mW
*.connectionManager.sat = -89dBm
*.connectionManager.alpha = 2.0
*.connectionManager.carrierFrequency = 5.890e9 Hz
*.connectionManager.sendDirect = true

*.**.nic.mac1609_4.useServiceChannel = false
*.**.nic.mac1609_4.txPower = 1.3mW # 20mW
*.**.nic.mac1609_4.bitrate = 18Mbps
*.**.nic.phy80211p.sensitivity = -89dBm
*.**.nic.phy80211p.maxTXPower = 10mW
*.**.nic.phy80211p.useThermalNoise = true
*.**.nic.phy80211p.thermalNoise = -110dBm
*.**.nic.phy80211p.decider = xmldoc("config.xml")
*.**.nic.phy80211p.analogueModels = xmldoc("config.xml")
*.**.nic.phy80211p.usePropagationDelay = true

##########################################################
#                    WaveAppLayer                        #
##########################################################
*.car[*].applType = "vehDist"
*.car[*].appl.debug = false
*.car[*].appl.headerLength = 256 bit
*.car[*].appl.sendBeacons = true
*.car[*].appl.dataOnSch = false #The channel type which will be used in the transmission, if control (type_CCH) or service (type_SCH). false value means type_CCH channel
*.car[*].appl.sendData = false
*.car[*].appl.beaconInterval = 1s
*.car[*].appl.beaconPriority = 3
*.car[*].appl.dataPriority = 2
*.car[*].appl.maxOffset = 0.005s
#*.car[*].appl.sendSummaryVectorInterval = 15s #define the minimum slide window length among contacts to send new version of summary vector
#*.car[*].appl.maximumMfcvEpidemicBufferSize = 300 #define the maximum buffer size (in number of messages) that a node is willing to allocate for mfcv_epidemic messages
*.car[*].appl.hopCount = 10 #define the maximum number of hopes that a message can be forward before reach the target

##########################################################
#                      Mobility                          #
##########################################################
*.car[*].veinsmobilityType = "org.car2x.veins.modules.mobility.traci.TraCIMobility"
*.car[*].mobilityType = "TraCIMobility"
*.car[*].mobilityType.debug = true
*.car[*].veinsmobilityType.debug = true
*.car[*].veinsmobility.x = 0
*.car[*].veinsmobility.y = 0
*.car[*].veinsmobility.z = 1.895
*.car[*0].veinsmobility.accidentCount = 0
*.car[*0].veinsmobility.accidentStart = 25s
*.car[*0].veinsmobility.accidentDuration = 20s

[Config nodebug]
description = "default settings"
**.debug = false
**.coreDebug = false
*.annotations.draw = false

[Config debug]
description = "(very slow!) draw and print additional debug information"
**.debug = true
**.coreDebug = true
*.annotations.draw = true
