<routes>

    <route id="route01" edges="4/1to4/2 4/2to3/2 3/2to2/2 2/2to1/2 1/2to2/2 2/2to3/2 3/2to4/2 4/2to4/1 4/1to4/2 4/2to3/2 3/2to2/2 2/2to1/2 1/2to2/2 2/2to3/2 3/2to4/2 4/2to4/1 4/1to4/2 4/2to3/2 3/2to2/2 2/2to1/2 1/2to2/2 2/2to3/2 3/2to4/2 4/2to4/1 4/1to4/2 4/2to3/2 3/2to2/2 2/2to1/2 1/2to2/2 2/2to3/2 3/2to4/2 4/2to4/1 4/1to4/2 4/2to3/2 3/2to2/2 2/2to1/2 1/2to2/2 2/2to3/2 3/2to4/2 4/2to4/1 4/1to4/2 4/2to3/2 3/2to2/2 2/2to1/2 1/2to2/2 2/2to3/2 3/2to4/2 4/2to4/1 4/1to4/2 4/2to3/2 3/2to2/2 2/2to1/2 1/2to2/2 2/2to3/2 3/2to4/2 4/2to4/1 4/1to4/2 4/2to3/2 3/2to2/2 2/2to1/2 1/2to2/2 2/2to3/2 3/2to4/2 4/2to4/1"/>
    <route id="route02" edges="0/2to0/3 0/3to0/4 0/4to1/4 1/4to2/4 2/4to1/4 1/4to0/4 0/4to0/3 0/3to0/2 0/2to0/3 0/3to0/4 0/4to1/4 1/4to2/4 2/4to1/4 1/4to0/4 0/4to0/3 0/3to0/2 0/2to0/3 0/3to0/4 0/4to1/4 1/4to2/4 2/4to1/4 1/4to0/4 0/4to0/3 0/3to0/2 0/2to0/3 0/3to0/4 0/4to1/4 1/4to2/4 2/4to1/4 1/4to0/4 0/4to0/3 0/3to0/2 0/2to0/3 0/3to0/4 0/4to1/4 1/4to2/4 2/4to1/4 1/4to0/4 0/4to0/3 0/3to0/2 0/2to0/3 0/3to0/4 0/4to1/4 1/4to2/4 2/4to1/4 1/4to0/4 0/4to0/3 0/3to0/2 0/2to0/3 0/3to0/4 0/4to1/4 1/4to2/4 2/4to1/4 1/4to0/4 0/4to0/3 0/3to0/2 0/2to0/3 0/3to0/4 0/4to1/4 1/4to2/4 2/4to1/4 1/4to0/4 0/4to0/3 0/3to0/2"/>
    <route id="route03" edges="2/2to2/3 2/3to1/3 1/3to1/2 1/2to1/1 1/1to1/2 1/2to1/3 1/3to2/3 2/3to2/2 2/2to2/3 2/3to1/3 1/3to1/2 1/2to1/1 1/1to1/2 1/2to1/3 1/3to2/3 2/3to2/2 2/2to2/3 2/3to1/3 1/3to1/2 1/2to1/1 1/1to1/2 1/2to1/3 1/3to2/3 2/3to2/2 2/2to2/3 2/3to1/3 1/3to1/2 1/2to1/1 1/1to1/2 1/2to1/3 1/3to2/3 2/3to2/2 2/2to2/3 2/3to1/3 1/3to1/2 1/2to1/1 1/1to1/2 1/2to1/3 1/3to2/3 2/3to2/2 2/2to2/3 2/3to1/3 1/3to1/2 1/2to1/1 1/1to1/2 1/2to1/3 1/3to2/3 2/3to2/2 2/2to2/3 2/3to1/3 1/3to1/2 1/2to1/1 1/1to1/2 1/2to1/3 1/3to2/3 2/3to2/2 2/2to2/3 2/3to1/3 1/3to1/2 1/2to1/1 1/1to1/2 1/2to1/3 1/3to2/3 2/3to2/2"/>
    <route id="route04" edges="1/1to2/1 2/1to2/2 2/2to3/2 3/2to3/3 3/3to3/2 3/2to2/2 2/2to2/1 2/1to1/1 1/1to2/1 2/1to2/2 2/2to3/2 3/2to3/3 3/3to3/2 3/2to2/2 2/2to2/1 2/1to1/1 1/1to2/1 2/1to2/2 2/2to3/2 3/2to3/3 3/3to3/2 3/2to2/2 2/2to2/1 2/1to1/1 1/1to2/1 2/1to2/2 2/2to3/2 3/2to3/3 3/3to3/2 3/2to2/2 2/2to2/1 2/1to1/1 1/1to2/1 2/1to2/2 2/2to3/2 3/2to3/3 3/3to3/2 3/2to2/2 2/2to2/1 2/1to1/1 1/1to2/1 2/1to2/2 2/2to3/2 3/2to3/3 3/3to3/2 3/2to2/2 2/2to2/1 2/1to1/1 1/1to2/1 2/1to2/2 2/2to3/2 3/2to3/3 3/3to3/2 3/2to2/2 2/2to2/1 2/1to1/1 1/1to2/1 2/1to2/2 2/2to3/2 3/2to3/3 3/3to3/2 3/2to2/2 2/2to2/1 2/1to1/1"/>
    <route id="route05" edges="2/2to3/2 3/2to3/3 3/3to3/4 3/4to2/4 2/4to3/4 3/4to3/3 3/3to3/2 3/2to2/2 2/2to3/2 3/2to3/3 3/3to3/4 3/4to2/4 2/4to3/4 3/4to3/3 3/3to3/2 3/2to2/2 2/2to3/2 3/2to3/3 3/3to3/4 3/4to2/4 2/4to3/4 3/4to3/3 3/3to3/2 3/2to2/2 2/2to3/2 3/2to3/3 3/3to3/4 3/4to2/4 2/4to3/4 3/4to3/3 3/3to3/2 3/2to2/2 2/2to3/2 3/2to3/3 3/3to3/4 3/4to2/4 2/4to3/4 3/4to3/3 3/3to3/2 3/2to2/2 2/2to3/2 3/2to3/3 3/3to3/4 3/4to2/4 2/4to3/4 3/4to3/3 3/3to3/2 3/2to2/2 2/2to3/2 3/2to3/3 3/3to3/4 3/4to2/4 2/4to3/4 3/4to3/3 3/3to3/2 3/2to2/2 2/2to3/2 3/2to3/3 3/3to3/4 3/4to2/4 2/4to3/4 3/4to3/3 3/3to3/2 3/2to2/2"/>
    <route id="route06" edges="4/4to3/4 3/4to2/4 2/4to1/4 1/4to1/3 1/3to1/4 1/4to2/4 2/4to3/4 3/4to4/4 4/4to3/4 3/4to2/4 2/4to1/4 1/4to1/3 1/3to1/4 1/4to2/4 2/4to3/4 3/4to4/4 4/4to3/4 3/4to2/4 2/4to1/4 1/4to1/3 1/3to1/4 1/4to2/4 2/4to3/4 3/4to4/4 4/4to3/4 3/4to2/4 2/4to1/4 1/4to1/3 1/3to1/4 1/4to2/4 2/4to3/4 3/4to4/4 4/4to3/4 3/4to2/4 2/4to1/4 1/4to1/3 1/3to1/4 1/4to2/4 2/4to3/4 3/4to4/4 4/4to3/4 3/4to2/4 2/4to1/4 1/4to1/3 1/3to1/4 1/4to2/4 2/4to3/4 3/4to4/4 4/4to3/4 3/4to2/4 2/4to1/4 1/4to1/3 1/3to1/4 1/4to2/4 2/4to3/4 3/4to4/4 4/4to3/4 3/4to2/4 2/4to1/4 1/4to1/3 1/3to1/4 1/4to2/4 2/4to3/4 3/4to4/4"/>
    <route id="route07" edges="3/1to2/1 2/1to1/1 1/1to1/0 1/0to2/0 2/0to1/0 1/0to1/1 1/1to2/1 2/1to3/1 3/1to2/1 2/1to1/1 1/1to1/0 1/0to2/0 2/0to1/0 1/0to1/1 1/1to2/1 2/1to3/1 3/1to2/1 2/1to1/1 1/1to1/0 1/0to2/0 2/0to1/0 1/0to1/1 1/1to2/1 2/1to3/1 3/1to2/1 2/1to1/1 1/1to1/0 1/0to2/0 2/0to1/0 1/0to1/1 1/1to2/1 2/1to3/1 3/1to2/1 2/1to1/1 1/1to1/0 1/0to2/0 2/0to1/0 1/0to1/1 1/1to2/1 2/1to3/1 3/1to2/1 2/1to1/1 1/1to1/0 1/0to2/0 2/0to1/0 1/0to1/1 1/1to2/1 2/1to3/1 3/1to2/1 2/1to1/1 1/1to1/0 1/0to2/0 2/0to1/0 1/0to1/1 1/1to2/1 2/1to3/1 3/1to2/1 2/1to1/1 1/1to1/0 1/0to2/0 2/0to1/0 1/0to1/1 1/1to2/1 2/1to3/1"/>
    <route id="route08" edges="1/0to1/1 1/1to1/2 1/2to1/3 1/3to1/4 1/4to1/3 1/3to1/2 1/2to1/1 1/1to1/0 1/0to1/1 1/1to1/2 1/2to1/3 1/3to1/4 1/4to1/3 1/3to1/2 1/2to1/1 1/1to1/0 1/0to1/1 1/1to1/2 1/2to1/3 1/3to1/4 1/4to1/3 1/3to1/2 1/2to1/1 1/1to1/0 1/0to1/1 1/1to1/2 1/2to1/3 1/3to1/4 1/4to1/3 1/3to1/2 1/2to1/1 1/1to1/0 1/0to1/1 1/1to1/2 1/2to1/3 1/3to1/4 1/4to1/3 1/3to1/2 1/2to1/1 1/1to1/0 1/0to1/1 1/1to1/2 1/2to1/3 1/3to1/4 1/4to1/3 1/3to1/2 1/2to1/1 1/1to1/0 1/0to1/1 1/1to1/2 1/2to1/3 1/3to1/4 1/4to1/3 1/3to1/2 1/2to1/1 1/1to1/0 1/0to1/1 1/1to1/2 1/2to1/3 1/3to1/4 1/4to1/3 1/3to1/2 1/2to1/1 1/1to1/0"/>
    <route id="route09" edges="0/2to1/2 1/2to1/3 1/3to1/4 1/4to2/4 2/4to1/4 1/4to1/3 1/3to1/2 1/2to0/2 0/2to1/2 1/2to1/3 1/3to1/4 1/4to2/4 2/4to1/4 1/4to1/3 1/3to1/2 1/2to0/2 0/2to1/2 1/2to1/3 1/3to1/4 1/4to2/4 2/4to1/4 1/4to1/3 1/3to1/2 1/2to0/2 0/2to1/2 1/2to1/3 1/3to1/4 1/4to2/4 2/4to1/4 1/4to1/3 1/3to1/2 1/2to0/2 0/2to1/2 1/2to1/3 1/3to1/4 1/4to2/4 2/4to1/4 1/4to1/3 1/3to1/2 1/2to0/2 0/2to1/2 1/2to1/3 1/3to1/4 1/4to2/4 2/4to1/4 1/4to1/3 1/3to1/2 1/2to0/2 0/2to1/2 1/2to1/3 1/3to1/4 1/4to2/4 2/4to1/4 1/4to1/3 1/3to1/2 1/2to0/2 0/2to1/2 1/2to1/3 1/3to1/4 1/4to2/4 2/4to1/4 1/4to1/3 1/3to1/2 1/2to0/2"/>
    <route id="route10" edges="1/1to1/2 1/2to2/2 2/2to3/2 3/2to4/2 4/2to3/2 3/2to2/2 2/2to1/2 1/2to1/1 1/1to1/2 1/2to2/2 2/2to3/2 3/2to4/2 4/2to3/2 3/2to2/2 2/2to1/2 1/2to1/1 1/1to1/2 1/2to2/2 2/2to3/2 3/2to4/2 4/2to3/2 3/2to2/2 2/2to1/2 1/2to1/1 1/1to1/2 1/2to2/2 2/2to3/2 3/2to4/2 4/2to3/2 3/2to2/2 2/2to1/2 1/2to1/1 1/1to1/2 1/2to2/2 2/2to3/2 3/2to4/2 4/2to3/2 3/2to2/2 2/2to1/2 1/2to1/1 1/1to1/2 1/2to2/2 2/2to3/2 3/2to4/2 4/2to3/2 3/2to2/2 2/2to1/2 1/2to1/1 1/1to1/2 1/2to2/2 2/2to3/2 3/2to4/2 4/2to3/2 3/2to2/2 2/2to1/2 1/2to1/1 1/1to1/2 1/2to2/2 2/2to3/2 3/2to4/2 4/2to3/2 3/2to2/2 2/2to1/2 1/2to1/1"/>
    <route id="route11" edges="1/4to1/3 1/3to1/2 1/2to1/1 1/1to1/0 1/0to1/1 1/1to1/2 1/2to1/3 1/3to1/4 1/4to1/3 1/3to1/2 1/2to1/1 1/1to1/0 1/0to1/1 1/1to1/2 1/2to1/3 1/3to1/4 1/4to1/3 1/3to1/2 1/2to1/1 1/1to1/0 1/0to1/1 1/1to1/2 1/2to1/3 1/3to1/4 1/4to1/3 1/3to1/2 1/2to1/1 1/1to1/0 1/0to1/1 1/1to1/2 1/2to1/3 1/3to1/4 1/4to1/3 1/3to1/2 1/2to1/1 1/1to1/0 1/0to1/1 1/1to1/2 1/2to1/3 1/3to1/4 1/4to1/3 1/3to1/2 1/2to1/1 1/1to1/0 1/0to1/1 1/1to1/2 1/2to1/3 1/3to1/4 1/4to1/3 1/3to1/2 1/2to1/1 1/1to1/0 1/0to1/1 1/1to1/2 1/2to1/3 1/3to1/4 1/4to1/3 1/3to1/2 1/2to1/1 1/1to1/0 1/0to1/1 1/1to1/2 1/2to1/3 1/3to1/4"/>
    <route id="route12" edges="0/3to0/2 0/2to0/1 0/1to1/1 1/1to2/1 2/1to1/1 1/1to0/1 0/1to0/2 0/2to0/3 0/3to0/2 0/2to0/1 0/1to1/1 1/1to2/1 2/1to1/1 1/1to0/1 0/1to0/2 0/2to0/3 0/3to0/2 0/2to0/1 0/1to1/1 1/1to2/1 2/1to1/1 1/1to0/1 0/1to0/2 0/2to0/3 0/3to0/2 0/2to0/1 0/1to1/1 1/1to2/1 2/1to1/1 1/1to0/1 0/1to0/2 0/2to0/3 0/3to0/2 0/2to0/1 0/1to1/1 1/1to2/1 2/1to1/1 1/1to0/1 0/1to0/2 0/2to0/3 0/3to0/2 0/2to0/1 0/1to1/1 1/1to2/1 2/1to1/1 1/1to0/1 0/1to0/2 0/2to0/3 0/3to0/2 0/2to0/1 0/1to1/1 1/1to2/1 2/1to1/1 1/1to0/1 0/1to0/2 0/2to0/3 0/3to0/2 0/2to0/1 0/1to1/1 1/1to2/1 2/1to1/1 1/1to0/1 0/1to0/2 0/2to0/3"/>
    <route id="route13" edges="0/4to0/3 0/3to0/2 0/2to0/1 0/1to1/1 1/1to0/1 0/1to0/2 0/2to0/3 0/3to0/4 0/4to0/3 0/3to0/2 0/2to0/1 0/1to1/1 1/1to0/1 0/1to0/2 0/2to0/3 0/3to0/4 0/4to0/3 0/3to0/2 0/2to0/1 0/1to1/1 1/1to0/1 0/1to0/2 0/2to0/3 0/3to0/4 0/4to0/3 0/3to0/2 0/2to0/1 0/1to1/1 1/1to0/1 0/1to0/2 0/2to0/3 0/3to0/4 0/4to0/3 0/3to0/2 0/2to0/1 0/1to1/1 1/1to0/1 0/1to0/2 0/2to0/3 0/3to0/4 0/4to0/3 0/3to0/2 0/2to0/1 0/1to1/1 1/1to0/1 0/1to0/2 0/2to0/3 0/3to0/4 0/4to0/3 0/3to0/2 0/2to0/1 0/1to1/1 1/1to0/1 0/1to0/2 0/2to0/3 0/3to0/4 0/4to0/3 0/3to0/2 0/2to0/1 0/1to1/1 1/1to0/1 0/1to0/2 0/2to0/3 0/3to0/4"/>
    <route id="route14" edges="2/2to1/2 1/2to1/3 1/3to1/4 1/4to2/4 2/4to1/4 1/4to1/3 1/3to1/2 1/2to2/2 2/2to1/2 1/2to1/3 1/3to1/4 1/4to2/4 2/4to1/4 1/4to1/3 1/3to1/2 1/2to2/2 2/2to1/2 1/2to1/3 1/3to1/4 1/4to2/4 2/4to1/4 1/4to1/3 1/3to1/2 1/2to2/2 2/2to1/2 1/2to1/3 1/3to1/4 1/4to2/4 2/4to1/4 1/4to1/3 1/3to1/2 1/2to2/2 2/2to1/2 1/2to1/3 1/3to1/4 1/4to2/4 2/4to1/4 1/4to1/3 1/3to1/2 1/2to2/2 2/2to1/2 1/2to1/3 1/3to1/4 1/4to2/4 2/4to1/4 1/4to1/3 1/3to1/2 1/2to2/2 2/2to1/2 1/2to1/3 1/3to1/4 1/4to2/4 2/4to1/4 1/4to1/3 1/3to1/2 1/2to2/2 2/2to1/2 1/2to1/3 1/3to1/4 1/4to2/4 2/4to1/4 1/4to1/3 1/3to1/2 1/2to2/2"/>
    <route id="route15" edges="0/0to0/1 0/1to0/2 0/2to0/3 0/3to1/3 1/3to0/3 0/3to0/2 0/2to0/1 0/1to0/0 0/0to0/1 0/1to0/2 0/2to0/3 0/3to1/3 1/3to0/3 0/3to0/2 0/2to0/1 0/1to0/0 0/0to0/1 0/1to0/2 0/2to0/3 0/3to1/3 1/3to0/3 0/3to0/2 0/2to0/1 0/1to0/0 0/0to0/1 0/1to0/2 0/2to0/3 0/3to1/3 1/3to0/3 0/3to0/2 0/2to0/1 0/1to0/0 0/0to0/1 0/1to0/2 0/2to0/3 0/3to1/3 1/3to0/3 0/3to0/2 0/2to0/1 0/1to0/0 0/0to0/1 0/1to0/2 0/2to0/3 0/3to1/3 1/3to0/3 0/3to0/2 0/2to0/1 0/1to0/0 0/0to0/1 0/1to0/2 0/2to0/3 0/3to1/3 1/3to0/3 0/3to0/2 0/2to0/1 0/1to0/0 0/0to0/1 0/1to0/2 0/2to0/3 0/3to1/3 1/3to0/3 0/3to0/2 0/2to0/1 0/1to0/0"/>
    <route id="route16" edges="3/4to2/4 2/4to2/3 2/3to3/3 3/3to3/4 3/4to3/3 3/3to2/3 2/3to2/4 2/4to3/4 3/4to2/4 2/4to2/3 2/3to3/3 3/3to3/4 3/4to3/3 3/3to2/3 2/3to2/4 2/4to3/4 3/4to2/4 2/4to2/3 2/3to3/3 3/3to3/4 3/4to3/3 3/3to2/3 2/3to2/4 2/4to3/4 3/4to2/4 2/4to2/3 2/3to3/3 3/3to3/4 3/4to3/3 3/3to2/3 2/3to2/4 2/4to3/4 3/4to2/4 2/4to2/3 2/3to3/3 3/3to3/4 3/4to3/3 3/3to2/3 2/3to2/4 2/4to3/4 3/4to2/4 2/4to2/3 2/3to3/3 3/3to3/4 3/4to3/3 3/3to2/3 2/3to2/4 2/4to3/4 3/4to2/4 2/4to2/3 2/3to3/3 3/3to3/4 3/4to3/3 3/3to2/3 2/3to2/4 2/4to3/4 3/4to2/4 2/4to2/3 2/3to3/3 3/3to3/4 3/4to3/3 3/3to2/3 2/3to2/4 2/4to3/4"/>
    <route id="route17" edges="2/4to1/4 1/4to1/3 1/3to1/2 1/2to1/1 1/1to1/2 1/2to1/3 1/3to1/4 1/4to2/4 2/4to1/4 1/4to1/3 1/3to1/2 1/2to1/1 1/1to1/2 1/2to1/3 1/3to1/4 1/4to2/4 2/4to1/4 1/4to1/3 1/3to1/2 1/2to1/1 1/1to1/2 1/2to1/3 1/3to1/4 1/4to2/4 2/4to1/4 1/4to1/3 1/3to1/2 1/2to1/1 1/1to1/2 1/2to1/3 1/3to1/4 1/4to2/4 2/4to1/4 1/4to1/3 1/3to1/2 1/2to1/1 1/1to1/2 1/2to1/3 1/3to1/4 1/4to2/4 2/4to1/4 1/4to1/3 1/3to1/2 1/2to1/1 1/1to1/2 1/2to1/3 1/3to1/4 1/4to2/4 2/4to1/4 1/4to1/3 1/3to1/2 1/2to1/1 1/1to1/2 1/2to1/3 1/3to1/4 1/4to2/4 2/4to1/4 1/4to1/3 1/3to1/2 1/2to1/1 1/1to1/2 1/2to1/3 1/3to1/4 1/4to2/4"/>
    <route id="route18" edges="3/2to2/2 2/2to1/2 1/2to0/2 0/2to0/3 0/3to0/2 0/2to1/2 1/2to2/2 2/2to3/2 3/2to2/2 2/2to1/2 1/2to0/2 0/2to0/3 0/3to0/2 0/2to1/2 1/2to2/2 2/2to3/2 3/2to2/2 2/2to1/2 1/2to0/2 0/2to0/3 0/3to0/2 0/2to1/2 1/2to2/2 2/2to3/2 3/2to2/2 2/2to1/2 1/2to0/2 0/2to0/3 0/3to0/2 0/2to1/2 1/2to2/2 2/2to3/2 3/2to2/2 2/2to1/2 1/2to0/2 0/2to0/3 0/3to0/2 0/2to1/2 1/2to2/2 2/2to3/2 3/2to2/2 2/2to1/2 1/2to0/2 0/2to0/3 0/3to0/2 0/2to1/2 1/2to2/2 2/2to3/2 3/2to2/2 2/2to1/2 1/2to0/2 0/2to0/3 0/3to0/2 0/2to1/2 1/2to2/2 2/2to3/2 3/2to2/2 2/2to1/2 1/2to0/2 0/2to0/3 0/3to0/2 0/2to1/2 1/2to2/2 2/2to3/2"/>
    <route id="route19" edges="2/2to2/3 2/3to1/3 1/3to1/2 1/2to1/1 1/1to1/2 1/2to1/3 1/3to2/3 2/3to2/2 2/2to2/3 2/3to1/3 1/3to1/2 1/2to1/1 1/1to1/2 1/2to1/3 1/3to2/3 2/3to2/2 2/2to2/3 2/3to1/3 1/3to1/2 1/2to1/1 1/1to1/2 1/2to1/3 1/3to2/3 2/3to2/2 2/2to2/3 2/3to1/3 1/3to1/2 1/2to1/1 1/1to1/2 1/2to1/3 1/3to2/3 2/3to2/2 2/2to2/3 2/3to1/3 1/3to1/2 1/2to1/1 1/1to1/2 1/2to1/3 1/3to2/3 2/3to2/2 2/2to2/3 2/3to1/3 1/3to1/2 1/2to1/1 1/1to1/2 1/2to1/3 1/3to2/3 2/3to2/2 2/2to2/3 2/3to1/3 1/3to1/2 1/2to1/1 1/1to1/2 1/2to1/3 1/3to2/3 2/3to2/2 2/2to2/3 2/3to1/3 1/3to1/2 1/2to1/1 1/1to1/2 1/2to1/3 1/3to2/3 2/3to2/2"/>
    <route id="route20" edges="4/2to4/1 4/1to3/1 3/1to2/1 2/1to1/1 1/1to2/1 2/1to3/1 3/1to4/1 4/1to4/2 4/2to4/1 4/1to3/1 3/1to2/1 2/1to1/1 1/1to2/1 2/1to3/1 3/1to4/1 4/1to4/2 4/2to4/1 4/1to3/1 3/1to2/1 2/1to1/1 1/1to2/1 2/1to3/1 3/1to4/1 4/1to4/2 4/2to4/1 4/1to3/1 3/1to2/1 2/1to1/1 1/1to2/1 2/1to3/1 3/1to4/1 4/1to4/2 4/2to4/1 4/1to3/1 3/1to2/1 2/1to1/1 1/1to2/1 2/1to3/1 3/1to4/1 4/1to4/2 4/2to4/1 4/1to3/1 3/1to2/1 2/1to1/1 1/1to2/1 2/1to3/1 3/1to4/1 4/1to4/2 4/2to4/1 4/1to3/1 3/1to2/1 2/1to1/1 1/1to2/1 2/1to3/1 3/1to4/1 4/1to4/2 4/2to4/1 4/1to3/1 3/1to2/1 2/1to1/1 1/1to2/1 2/1to3/1 3/1to4/1 4/1to4/2"/>
    <route id="route21" edges="2/3to2/2 2/2to1/2 1/2to1/3 1/3to0/3 0/3to1/3 1/3to1/2 1/2to2/2 2/2to2/3 2/3to2/2 2/2to1/2 1/2to1/3 1/3to0/3 0/3to1/3 1/3to1/2 1/2to2/2 2/2to2/3 2/3to2/2 2/2to1/2 1/2to1/3 1/3to0/3 0/3to1/3 1/3to1/2 1/2to2/2 2/2to2/3 2/3to2/2 2/2to1/2 1/2to1/3 1/3to0/3 0/3to1/3 1/3to1/2 1/2to2/2 2/2to2/3 2/3to2/2 2/2to1/2 1/2to1/3 1/3to0/3 0/3to1/3 1/3to1/2 1/2to2/2 2/2to2/3 2/3to2/2 2/2to1/2 1/2to1/3 1/3to0/3 0/3to1/3 1/3to1/2 1/2to2/2 2/2to2/3 2/3to2/2 2/2to1/2 1/2to1/3 1/3to0/3 0/3to1/3 1/3to1/2 1/2to2/2 2/2to2/3 2/3to2/2 2/2to1/2 1/2to1/3 1/3to0/3 0/3to1/3 1/3to1/2 1/2to2/2 2/2to2/3"/>
    <route id="route22" edges="4/0to3/0 3/0to3/1 3/1to3/2 3/2to2/2 2/2to3/2 3/2to3/1 3/1to3/0 3/0to4/0 4/0to3/0 3/0to3/1 3/1to3/2 3/2to2/2 2/2to3/2 3/2to3/1 3/1to3/0 3/0to4/0 4/0to3/0 3/0to3/1 3/1to3/2 3/2to2/2 2/2to3/2 3/2to3/1 3/1to3/0 3/0to4/0 4/0to3/0 3/0to3/1 3/1to3/2 3/2to2/2 2/2to3/2 3/2to3/1 3/1to3/0 3/0to4/0 4/0to3/0 3/0to3/1 3/1to3/2 3/2to2/2 2/2to3/2 3/2to3/1 3/1to3/0 3/0to4/0 4/0to3/0 3/0to3/1 3/1to3/2 3/2to2/2 2/2to3/2 3/2to3/1 3/1to3/0 3/0to4/0 4/0to3/0 3/0to3/1 3/1to3/2 3/2to2/2 2/2to3/2 3/2to3/1 3/1to3/0 3/0to4/0 4/0to3/0 3/0to3/1 3/1to3/2 3/2to2/2 2/2to3/2 3/2to3/1 3/1to3/0 3/0to4/0"/>
    <route id="route23" edges="3/2to3/1 3/1to2/1 2/1to2/2 2/2to3/2 3/2to2/2 2/2to2/1 2/1to3/1 3/1to3/2 3/2to3/1 3/1to2/1 2/1to2/2 2/2to3/2 3/2to2/2 2/2to2/1 2/1to3/1 3/1to3/2 3/2to3/1 3/1to2/1 2/1to2/2 2/2to3/2 3/2to2/2 2/2to2/1 2/1to3/1 3/1to3/2 3/2to3/1 3/1to2/1 2/1to2/2 2/2to3/2 3/2to2/2 2/2to2/1 2/1to3/1 3/1to3/2 3/2to3/1 3/1to2/1 2/1to2/2 2/2to3/2 3/2to2/2 2/2to2/1 2/1to3/1 3/1to3/2 3/2to3/1 3/1to2/1 2/1to2/2 2/2to3/2 3/2to2/2 2/2to2/1 2/1to3/1 3/1to3/2 3/2to3/1 3/1to2/1 2/1to2/2 2/2to3/2 3/2to2/2 2/2to2/1 2/1to3/1 3/1to3/2 3/2to3/1 3/1to2/1 2/1to2/2 2/2to3/2 3/2to2/2 2/2to2/1 2/1to3/1 3/1to3/2"/>
    <route id="route24" edges="3/3to3/2 3/2to4/2 4/2to4/3 4/3to3/3 3/3to4/3 4/3to4/2 4/2to3/2 3/2to3/3 3/3to3/2 3/2to4/2 4/2to4/3 4/3to3/3 3/3to4/3 4/3to4/2 4/2to3/2 3/2to3/3 3/3to3/2 3/2to4/2 4/2to4/3 4/3to3/3 3/3to4/3 4/3to4/2 4/2to3/2 3/2to3/3 3/3to3/2 3/2to4/2 4/2to4/3 4/3to3/3 3/3to4/3 4/3to4/2 4/2to3/2 3/2to3/3 3/3to3/2 3/2to4/2 4/2to4/3 4/3to3/3 3/3to4/3 4/3to4/2 4/2to3/2 3/2to3/3 3/3to3/2 3/2to4/2 4/2to4/3 4/3to3/3 3/3to4/3 4/3to4/2 4/2to3/2 3/2to3/3 3/3to3/2 3/2to4/2 4/2to4/3 4/3to3/3 3/3to4/3 4/3to4/2 4/2to3/2 3/2to3/3 3/3to3/2 3/2to4/2 4/2to4/3 4/3to3/3 3/3to4/3 4/3to4/2 4/2to3/2 3/2to3/3"/>
    <route id="route25" edges="3/1to2/1 2/1to1/1 1/1to1/2 1/2to1/3 1/3to1/2 1/2to1/1 1/1to2/1 2/1to3/1 3/1to2/1 2/1to1/1 1/1to1/2 1/2to1/3 1/3to1/2 1/2to1/1 1/1to2/1 2/1to3/1 3/1to2/1 2/1to1/1 1/1to1/2 1/2to1/3 1/3to1/2 1/2to1/1 1/1to2/1 2/1to3/1 3/1to2/1 2/1to1/1 1/1to1/2 1/2to1/3 1/3to1/2 1/2to1/1 1/1to2/1 2/1to3/1 3/1to2/1 2/1to1/1 1/1to1/2 1/2to1/3 1/3to1/2 1/2to1/1 1/1to2/1 2/1to3/1 3/1to2/1 2/1to1/1 1/1to1/2 1/2to1/3 1/3to1/2 1/2to1/1 1/1to2/1 2/1to3/1 3/1to2/1 2/1to1/1 1/1to1/2 1/2to1/3 1/3to1/2 1/2to1/1 1/1to2/1 2/1to3/1 3/1to2/1 2/1to1/1 1/1to1/2 1/2to1/3 1/3to1/2 1/2to1/1 1/1to2/1 2/1to3/1"/>
    <route id="route26" edges="2/0to2/1 2/1to1/1 1/1to0/1 0/1to0/0 0/0to0/1 0/1to1/1 1/1to2/1 2/1to2/0 2/0to2/1 2/1to1/1 1/1to0/1 0/1to0/0 0/0to0/1 0/1to1/1 1/1to2/1 2/1to2/0 2/0to2/1 2/1to1/1 1/1to0/1 0/1to0/0 0/0to0/1 0/1to1/1 1/1to2/1 2/1to2/0 2/0to2/1 2/1to1/1 1/1to0/1 0/1to0/0 0/0to0/1 0/1to1/1 1/1to2/1 2/1to2/0 2/0to2/1 2/1to1/1 1/1to0/1 0/1to0/0 0/0to0/1 0/1to1/1 1/1to2/1 2/1to2/0 2/0to2/1 2/1to1/1 1/1to0/1 0/1to0/0 0/0to0/1 0/1to1/1 1/1to2/1 2/1to2/0 2/0to2/1 2/1to1/1 1/1to0/1 0/1to0/0 0/0to0/1 0/1to1/1 1/1to2/1 2/1to2/0 2/0to2/1 2/1to1/1 1/1to0/1 0/1to0/0 0/0to0/1 0/1to1/1 1/1to2/1 2/1to2/0"/>
    <route id="route27" edges="0/1to1/1 1/1to1/2 1/2to1/3 1/3to2/3 2/3to1/3 1/3to1/2 1/2to1/1 1/1to0/1 0/1to1/1 1/1to1/2 1/2to1/3 1/3to2/3 2/3to1/3 1/3to1/2 1/2to1/1 1/1to0/1 0/1to1/1 1/1to1/2 1/2to1/3 1/3to2/3 2/3to1/3 1/3to1/2 1/2to1/1 1/1to0/1 0/1to1/1 1/1to1/2 1/2to1/3 1/3to2/3 2/3to1/3 1/3to1/2 1/2to1/1 1/1to0/1 0/1to1/1 1/1to1/2 1/2to1/3 1/3to2/3 2/3to1/3 1/3to1/2 1/2to1/1 1/1to0/1 0/1to1/1 1/1to1/2 1/2to1/3 1/3to2/3 2/3to1/3 1/3to1/2 1/2to1/1 1/1to0/1 0/1to1/1 1/1to1/2 1/2to1/3 1/3to2/3 2/3to1/3 1/3to1/2 1/2to1/1 1/1to0/1 0/1to1/1 1/1to1/2 1/2to1/3 1/3to2/3 2/3to1/3 1/3to1/2 1/2to1/1 1/1to0/1"/>
    <route id="route28" edges="4/4to4/3 4/3to3/3 3/3to3/2 3/2to2/2 2/2to3/2 3/2to3/3 3/3to4/3 4/3to4/4 4/4to4/3 4/3to3/3 3/3to3/2 3/2to2/2 2/2to3/2 3/2to3/3 3/3to4/3 4/3to4/4 4/4to4/3 4/3to3/3 3/3to3/2 3/2to2/2 2/2to3/2 3/2to3/3 3/3to4/3 4/3to4/4 4/4to4/3 4/3to3/3 3/3to3/2 3/2to2/2 2/2to3/2 3/2to3/3 3/3to4/3 4/3to4/4 4/4to4/3 4/3to3/3 3/3to3/2 3/2to2/2 2/2to3/2 3/2to3/3 3/3to4/3 4/3to4/4 4/4to4/3 4/3to3/3 3/3to3/2 3/2to2/2 2/2to3/2 3/2to3/3 3/3to4/3 4/3to4/4 4/4to4/3 4/3to3/3 3/3to3/2 3/2to2/2 2/2to3/2 3/2to3/3 3/3to4/3 4/3to4/4 4/4to4/3 4/3to3/3 3/3to3/2 3/2to2/2 2/2to3/2 3/2to3/3 3/3to4/3 4/3to4/4"/>
    <route id="route29" edges="2/1to1/1 1/1to0/1 0/1to0/2 0/2to0/3 0/3to0/2 0/2to0/1 0/1to1/1 1/1to2/1 2/1to1/1 1/1to0/1 0/1to0/2 0/2to0/3 0/3to0/2 0/2to0/1 0/1to1/1 1/1to2/1 2/1to1/1 1/1to0/1 0/1to0/2 0/2to0/3 0/3to0/2 0/2to0/1 0/1to1/1 1/1to2/1 2/1to1/1 1/1to0/1 0/1to0/2 0/2to0/3 0/3to0/2 0/2to0/1 0/1to1/1 1/1to2/1 2/1to1/1 1/1to0/1 0/1to0/2 0/2to0/3 0/3to0/2 0/2to0/1 0/1to1/1 1/1to2/1 2/1to1/1 1/1to0/1 0/1to0/2 0/2to0/3 0/3to0/2 0/2to0/1 0/1to1/1 1/1to2/1 2/1to1/1 1/1to0/1 0/1to0/2 0/2to0/3 0/3to0/2 0/2to0/1 0/1to1/1 1/1to2/1 2/1to1/1 1/1to0/1 0/1to0/2 0/2to0/3 0/3to0/2 0/2to0/1 0/1to1/1 1/1to2/1"/>
    <route id="route30" edges="4/1to4/0 4/0to3/0 3/0to2/0 2/0to1/0 1/0to2/0 2/0to3/0 3/0to4/0 4/0to4/1 4/1to4/0 4/0to3/0 3/0to2/0 2/0to1/0 1/0to2/0 2/0to3/0 3/0to4/0 4/0to4/1 4/1to4/0 4/0to3/0 3/0to2/0 2/0to1/0 1/0to2/0 2/0to3/0 3/0to4/0 4/0to4/1 4/1to4/0 4/0to3/0 3/0to2/0 2/0to1/0 1/0to2/0 2/0to3/0 3/0to4/0 4/0to4/1 4/1to4/0 4/0to3/0 3/0to2/0 2/0to1/0 1/0to2/0 2/0to3/0 3/0to4/0 4/0to4/1 4/1to4/0 4/0to3/0 3/0to2/0 2/0to1/0 1/0to2/0 2/0to3/0 3/0to4/0 4/0to4/1 4/1to4/0 4/0to3/0 3/0to2/0 2/0to1/0 1/0to2/0 2/0to3/0 3/0to4/0 4/0to4/1 4/1to4/0 4/0to3/0 3/0to2/0 2/0to1/0 1/0to2/0 2/0to3/0 3/0to4/0 4/0to4/1"/>
    <route id="route31" edges="2/3to2/2 2/2to1/2 1/2to0/2 0/2to0/1 0/1to0/2 0/2to1/2 1/2to2/2 2/2to2/3 2/3to2/2 2/2to1/2 1/2to0/2 0/2to0/1 0/1to0/2 0/2to1/2 1/2to2/2 2/2to2/3 2/3to2/2 2/2to1/2 1/2to0/2 0/2to0/1 0/1to0/2 0/2to1/2 1/2to2/2 2/2to2/3 2/3to2/2 2/2to1/2 1/2to0/2 0/2to0/1 0/1to0/2 0/2to1/2 1/2to2/2 2/2to2/3 2/3to2/2 2/2to1/2 1/2to0/2 0/2to0/1 0/1to0/2 0/2to1/2 1/2to2/2 2/2to2/3 2/3to2/2 2/2to1/2 1/2to0/2 0/2to0/1 0/1to0/2 0/2to1/2 1/2to2/2 2/2to2/3 2/3to2/2 2/2to1/2 1/2to0/2 0/2to0/1 0/1to0/2 0/2to1/2 1/2to2/2 2/2to2/3 2/3to2/2 2/2to1/2 1/2to0/2 0/2to0/1 0/1to0/2 0/2to1/2 1/2to2/2 2/2to2/3"/>
    <route id="route32" edges="3/1to2/1 2/1to1/1 1/1to0/1 0/1to0/2 0/2to0/1 0/1to1/1 1/1to2/1 2/1to3/1 3/1to2/1 2/1to1/1 1/1to0/1 0/1to0/2 0/2to0/1 0/1to1/1 1/1to2/1 2/1to3/1 3/1to2/1 2/1to1/1 1/1to0/1 0/1to0/2 0/2to0/1 0/1to1/1 1/1to2/1 2/1to3/1 3/1to2/1 2/1to1/1 1/1to0/1 0/1to0/2 0/2to0/1 0/1to1/1 1/1to2/1 2/1to3/1 3/1to2/1 2/1to1/1 1/1to0/1 0/1to0/2 0/2to0/1 0/1to1/1 1/1to2/1 2/1to3/1 3/1to2/1 2/1to1/1 1/1to0/1 0/1to0/2 0/2to0/1 0/1to1/1 1/1to2/1 2/1to3/1 3/1to2/1 2/1to1/1 1/1to0/1 0/1to0/2 0/2to0/1 0/1to1/1 1/1to2/1 2/1to3/1 3/1to2/1 2/1to1/1 1/1to0/1 0/1to0/2 0/2to0/1 0/1to1/1 1/1to2/1 2/1to3/1"/>
    <route id="route33" edges="1/0to0/0 0/0to0/1 0/1to0/2 0/2to1/2 1/2to0/2 0/2to0/1 0/1to0/0 0/0to1/0 1/0to0/0 0/0to0/1 0/1to0/2 0/2to1/2 1/2to0/2 0/2to0/1 0/1to0/0 0/0to1/0 1/0to0/0 0/0to0/1 0/1to0/2 0/2to1/2 1/2to0/2 0/2to0/1 0/1to0/0 0/0to1/0 1/0to0/0 0/0to0/1 0/1to0/2 0/2to1/2 1/2to0/2 0/2to0/1 0/1to0/0 0/0to1/0 1/0to0/0 0/0to0/1 0/1to0/2 0/2to1/2 1/2to0/2 0/2to0/1 0/1to0/0 0/0to1/0 1/0to0/0 0/0to0/1 0/1to0/2 0/2to1/2 1/2to0/2 0/2to0/1 0/1to0/0 0/0to1/0 1/0to0/0 0/0to0/1 0/1to0/2 0/2to1/2 1/2to0/2 0/2to0/1 0/1to0/0 0/0to1/0 1/0to0/0 0/0to0/1 0/1to0/2 0/2to1/2 1/2to0/2 0/2to0/1 0/1to0/0 0/0to1/0"/>
    <route id="route34" edges="3/4to3/3 3/3to3/2 3/2to3/1 3/1to2/1 2/1to3/1 3/1to3/2 3/2to3/3 3/3to3/4 3/4to3/3 3/3to3/2 3/2to3/1 3/1to2/1 2/1to3/1 3/1to3/2 3/2to3/3 3/3to3/4 3/4to3/3 3/3to3/2 3/2to3/1 3/1to2/1 2/1to3/1 3/1to3/2 3/2to3/3 3/3to3/4 3/4to3/3 3/3to3/2 3/2to3/1 3/1to2/1 2/1to3/1 3/1to3/2 3/2to3/3 3/3to3/4 3/4to3/3 3/3to3/2 3/2to3/1 3/1to2/1 2/1to3/1 3/1to3/2 3/2to3/3 3/3to3/4 3/4to3/3 3/3to3/2 3/2to3/1 3/1to2/1 2/1to3/1 3/1to3/2 3/2to3/3 3/3to3/4 3/4to3/3 3/3to3/2 3/2to3/1 3/1to2/1 2/1to3/1 3/1to3/2 3/2to3/3 3/3to3/4 3/4to3/3 3/3to3/2 3/2to3/1 3/1to2/1 2/1to3/1 3/1to3/2 3/2to3/3 3/3to3/4"/>
    <route id="route35" edges="2/3to2/2 2/2to2/1 2/1to2/0 2/0to1/0 1/0to2/0 2/0to2/1 2/1to2/2 2/2to2/3 2/3to2/2 2/2to2/1 2/1to2/0 2/0to1/0 1/0to2/0 2/0to2/1 2/1to2/2 2/2to2/3 2/3to2/2 2/2to2/1 2/1to2/0 2/0to1/0 1/0to2/0 2/0to2/1 2/1to2/2 2/2to2/3 2/3to2/2 2/2to2/1 2/1to2/0 2/0to1/0 1/0to2/0 2/0to2/1 2/1to2/2 2/2to2/3 2/3to2/2 2/2to2/1 2/1to2/0 2/0to1/0 1/0to2/0 2/0to2/1 2/1to2/2 2/2to2/3 2/3to2/2 2/2to2/1 2/1to2/0 2/0to1/0 1/0to2/0 2/0to2/1 2/1to2/2 2/2to2/3 2/3to2/2 2/2to2/1 2/1to2/0 2/0to1/0 1/0to2/0 2/0to2/1 2/1to2/2 2/2to2/3 2/3to2/2 2/2to2/1 2/1to2/0 2/0to1/0 1/0to2/0 2/0to2/1 2/1to2/2 2/2to2/3"/>
    <route id="route36" edges="4/3to3/3 3/3to2/3 2/3to1/3 1/3to0/3 0/3to1/3 1/3to2/3 2/3to3/3 3/3to4/3 4/3to3/3 3/3to2/3 2/3to1/3 1/3to0/3 0/3to1/3 1/3to2/3 2/3to3/3 3/3to4/3 4/3to3/3 3/3to2/3 2/3to1/3 1/3to0/3 0/3to1/3 1/3to2/3 2/3to3/3 3/3to4/3 4/3to3/3 3/3to2/3 2/3to1/3 1/3to0/3 0/3to1/3 1/3to2/3 2/3to3/3 3/3to4/3 4/3to3/3 3/3to2/3 2/3to1/3 1/3to0/3 0/3to1/3 1/3to2/3 2/3to3/3 3/3to4/3 4/3to3/3 3/3to2/3 2/3to1/3 1/3to0/3 0/3to1/3 1/3to2/3 2/3to3/3 3/3to4/3 4/3to3/3 3/3to2/3 2/3to1/3 1/3to0/3 0/3to1/3 1/3to2/3 2/3to3/3 3/3to4/3 4/3to3/3 3/3to2/3 2/3to1/3 1/3to0/3 0/3to1/3 1/3to2/3 2/3to3/3 3/3to4/3"/>
    <route id="route37" edges="4/0to4/1 4/1to3/1 3/1to2/1 2/1to2/2 2/2to2/1 2/1to3/1 3/1to4/1 4/1to4/0 4/0to4/1 4/1to3/1 3/1to2/1 2/1to2/2 2/2to2/1 2/1to3/1 3/1to4/1 4/1to4/0 4/0to4/1 4/1to3/1 3/1to2/1 2/1to2/2 2/2to2/1 2/1to3/1 3/1to4/1 4/1to4/0 4/0to4/1 4/1to3/1 3/1to2/1 2/1to2/2 2/2to2/1 2/1to3/1 3/1to4/1 4/1to4/0 4/0to4/1 4/1to3/1 3/1to2/1 2/1to2/2 2/2to2/1 2/1to3/1 3/1to4/1 4/1to4/0 4/0to4/1 4/1to3/1 3/1to2/1 2/1to2/2 2/2to2/1 2/1to3/1 3/1to4/1 4/1to4/0 4/0to4/1 4/1to3/1 3/1to2/1 2/1to2/2 2/2to2/1 2/1to3/1 3/1to4/1 4/1to4/0 4/0to4/1 4/1to3/1 3/1to2/1 2/1to2/2 2/2to2/1 2/1to3/1 3/1to4/1 4/1to4/0"/>
    <route id="route38" edges="0/0to0/1 0/1to1/1 1/1to1/0 1/0to2/0 2/0to1/0 1/0to1/1 1/1to0/1 0/1to0/0 0/0to0/1 0/1to1/1 1/1to1/0 1/0to2/0 2/0to1/0 1/0to1/1 1/1to0/1 0/1to0/0 0/0to0/1 0/1to1/1 1/1to1/0 1/0to2/0 2/0to1/0 1/0to1/1 1/1to0/1 0/1to0/0 0/0to0/1 0/1to1/1 1/1to1/0 1/0to2/0 2/0to1/0 1/0to1/1 1/1to0/1 0/1to0/0 0/0to0/1 0/1to1/1 1/1to1/0 1/0to2/0 2/0to1/0 1/0to1/1 1/1to0/1 0/1to0/0 0/0to0/1 0/1to1/1 1/1to1/0 1/0to2/0 2/0to1/0 1/0to1/1 1/1to0/1 0/1to0/0 0/0to0/1 0/1to1/1 1/1to1/0 1/0to2/0 2/0to1/0 1/0to1/1 1/1to0/1 0/1to0/0 0/0to0/1 0/1to1/1 1/1to1/0 1/0to2/0 2/0to1/0 1/0to1/1 1/1to0/1 0/1to0/0"/>
    <route id="route39" edges="4/4to3/4 3/4to2/4 2/4to1/4 1/4to1/3 1/3to1/4 1/4to2/4 2/4to3/4 3/4to4/4 4/4to3/4 3/4to2/4 2/4to1/4 1/4to1/3 1/3to1/4 1/4to2/4 2/4to3/4 3/4to4/4 4/4to3/4 3/4to2/4 2/4to1/4 1/4to1/3 1/3to1/4 1/4to2/4 2/4to3/4 3/4to4/4 4/4to3/4 3/4to2/4 2/4to1/4 1/4to1/3 1/3to1/4 1/4to2/4 2/4to3/4 3/4to4/4 4/4to3/4 3/4to2/4 2/4to1/4 1/4to1/3 1/3to1/4 1/4to2/4 2/4to3/4 3/4to4/4 4/4to3/4 3/4to2/4 2/4to1/4 1/4to1/3 1/3to1/4 1/4to2/4 2/4to3/4 3/4to4/4 4/4to3/4 3/4to2/4 2/4to1/4 1/4to1/3 1/3to1/4 1/4to2/4 2/4to3/4 3/4to4/4 4/4to3/4 3/4to2/4 2/4to1/4 1/4to1/3 1/3to1/4 1/4to2/4 2/4to3/4 3/4to4/4"/>
    <route id="route40" edges="2/4to1/4 1/4to1/3 1/3to1/2 1/2to2/2 2/2to1/2 1/2to1/3 1/3to1/4 1/4to2/4 2/4to1/4 1/4to1/3 1/3to1/2 1/2to2/2 2/2to1/2 1/2to1/3 1/3to1/4 1/4to2/4 2/4to1/4 1/4to1/3 1/3to1/2 1/2to2/2 2/2to1/2 1/2to1/3 1/3to1/4 1/4to2/4 2/4to1/4 1/4to1/3 1/3to1/2 1/2to2/2 2/2to1/2 1/2to1/3 1/3to1/4 1/4to2/4 2/4to1/4 1/4to1/3 1/3to1/2 1/2to2/2 2/2to1/2 1/2to1/3 1/3to1/4 1/4to2/4 2/4to1/4 1/4to1/3 1/3to1/2 1/2to2/2 2/2to1/2 1/2to1/3 1/3to1/4 1/4to2/4 2/4to1/4 1/4to1/3 1/3to1/2 1/2to2/2 2/2to1/2 1/2to1/3 1/3to1/4 1/4to2/4 2/4to1/4 1/4to1/3 1/3to1/2 1/2to2/2 2/2to1/2 1/2to1/3 1/3to1/4 1/4to2/4"/>
    <route id="route41" edges="1/4to0/4 0/4to0/3 0/3to0/2 0/2to1/2 1/2to1/1 1/1to1/0 1/0to2/0 2/0to2/1 2/1to1/1 1/1to1/2 1/2to1/3 1/3to2/3 2/3to1/3 1/3to0/3 0/3to0/4 0/4to1/4 1/4to1/3 1/3to0/3 0/3to1/3 1/3to2/3 2/3to3/3 3/3to2/3 2/3to2/2 2/2to2/1 2/1to2/0 2/0to2/1 2/1to2/2 2/2to2/3 2/3to2/4 2/4to3/4 3/4to2/4 2/4to2/3 2/3to2/2 2/2to2/1 2/1to2/0 2/0to3/0 3/0to2/0 2/0to1/0 1/0to1/1 1/1to1/2 1/2to1/3 1/3to1/4 1/4to2/4 2/4to1/4 1/4to1/3 1/3to1/2 1/2to1/1 1/1to1/0 1/0to2/0 2/0to3/0 3/0to4/0 4/0to4/1 4/1to3/1 3/1to2/1 2/1to1/1 1/1to1/2 1/2to0/2 0/2to1/2 1/2to2/2 2/2to3/2 3/2to4/2 4/2to3/2 3/2to2/2 2/2to1/2"/>
    <route id="route42" edges="1/1to2/1 2/1to2/2 2/2to2/3 2/3to3/3 3/3to4/3 4/3to4/2 4/2to3/2 3/2to2/2 2/2to1/2 1/2to0/2 0/2to0/3 0/3to0/2 0/2to1/2 1/2to2/2 2/2to3/2 3/2to4/2 4/2to4/1 4/1to3/1 3/1to3/2 3/2to3/1 3/1to4/1 4/1to3/1 3/1to2/1 2/1to1/1 1/1to0/1 0/1to0/2 0/2to0/3 0/3to0/4 0/4to1/4 1/4to1/3 1/3to1/2 1/2to1/1 1/1to1/0 1/0to0/0 0/0to0/1 0/1to0/2 0/2to0/3 0/3to1/3 1/3to1/4 1/4to2/4 2/4to1/4 1/4to1/3 1/3to1/2 1/2to1/1 1/1to2/1 2/1to2/0 2/0to2/1 2/1to2/2 2/2to2/3 2/3to2/2 2/2to2/3 2/3to2/4 2/4to2/3 2/3to2/2 2/2to3/2 3/2to4/2 4/2to4/3 4/3to3/3 3/3to3/2 3/2to3/1 3/1to3/0 3/0to4/0 4/0to3/0 3/0to2/0"/>
    <route id="route43" edges="1/3to0/3 0/3to0/4 0/4to0/3 0/3to0/2 0/2to0/1 0/1to1/1 1/1to2/1 2/1to3/1 3/1to4/1 4/1to4/2 4/2to3/2 3/2to2/2 2/2to2/1 2/1to2/2 2/2to1/2 1/2to0/2 0/2to0/1 0/1to0/0 0/0to0/1 0/1to1/1 1/1to2/1 2/1to1/1 1/1to2/1 2/1to3/1 3/1to2/1 2/1to1/1 1/1to0/1 0/1to0/2 0/2to0/3 0/3to0/2 0/2to0/1 0/1to1/1 1/1to1/0 1/0to2/0 2/0to3/0 3/0to2/0 2/0to2/1 2/1to2/2 2/2to3/2 3/2to4/2 4/2to3/2 3/2to3/3 3/3to3/4 3/4to4/4 4/4to3/4 3/4to2/4 2/4to1/4 1/4to1/3 1/3to1/2 1/2to1/1 1/1to1/2 1/2to1/3 1/3to2/3 2/3to2/4 2/4to3/4 3/4to2/4 2/4to1/4 1/4to2/4 2/4to2/3 2/3to1/3 1/3to0/3 0/3to0/2 0/2to0/1 0/1to0/0"/>
    <route id="route44" edges="4/3to3/3 3/3to2/3 2/3to2/4 2/4to1/4 1/4to0/4 0/4to0/3 0/3to0/2 0/2to0/1 0/1to1/1 1/1to0/1 0/1to1/1 1/1to1/0 1/0to0/0 0/0to1/0 1/0to1/1 1/1to0/1 0/1to0/2 0/2to0/3 0/3to0/4 0/4to0/3 0/3to1/3 1/3to1/4 1/4to0/4 0/4to1/4 1/4to2/4 2/4to1/4 1/4to1/3 1/3to0/3 0/3to0/2 0/2to0/1 0/1to0/0 0/0to1/0 1/0to2/0 2/0to3/0 3/0to4/0 4/0to3/0 3/0to2/0 2/0to1/0 1/0to1/1 1/1to1/2 1/2to1/3 1/3to2/3 2/3to1/3 1/3to1/2 1/2to1/1 1/1to2/1 2/1to1/1 1/1to1/2 1/2to1/3 1/3to2/3 2/3to3/3 3/3to4/3 4/3to3/3 3/3to2/3 2/3to2/2 2/2to2/1 2/1to2/2 2/2to1/2 1/2to0/2 0/2to0/1 0/1to1/1 1/1to2/1 2/1to3/1 3/1to2/1"/>
    <route id="route45" edges="4/3to4/2 4/2to3/2 3/2to3/1 3/1to3/2 3/2to3/1 3/1to3/0 3/0to4/0 4/0to3/0 3/0to3/1 3/1to3/2 3/2to3/3 3/3to4/3 4/3to3/3 3/3to2/3 2/3to1/3 1/3to1/2 1/2to1/3 1/3to0/3 0/3to0/2 0/2to0/1 0/1to0/0 0/0to0/1 0/1to0/2 0/2to1/2 1/2to2/2 2/2to2/3 2/3to1/3 1/3to1/4 1/4to0/4 0/4to0/3 0/3to0/2 0/2to0/1 0/1to1/1 1/1to2/1 2/1to3/1 3/1to2/1 2/1to2/0 2/0to3/0 3/0to4/0 4/0to4/1 4/1to3/1 3/1to2/1 2/1to1/1 1/1to1/2 1/2to1/3 1/3to2/3 2/3to2/2 2/2to2/1 2/1to3/1 3/1to4/1 4/1to4/0 4/0to3/0 3/0to2/0 2/0to2/1 2/1to2/2 2/2to2/3 2/3to2/4 2/4to2/3 2/3to1/3 1/3to1/2 1/2to1/1 1/1to2/1 2/1to3/1 3/1to3/2"/>
    <route id="route46" edges="2/0to3/0 3/0to2/0 2/0to1/0 1/0to1/1 1/1to0/1 0/1to0/2 0/2to0/1 0/1to1/1 1/1to2/1 2/1to3/1 3/1to3/0 3/0to3/1 3/1to4/1 4/1to3/1 3/1to2/1 2/1to1/1 1/1to0/1 0/1to0/2 0/2to0/3 0/3to1/3 1/3to1/2 1/2to1/1 1/1to1/0 1/0to1/1 1/1to1/2 1/2to1/3 1/3to2/3 2/3to3/3 3/3to4/3 4/3to3/3 3/3to2/3 2/3to1/3 1/3to0/3 0/3to0/2 0/2to1/2 1/2to2/2 2/2to3/2 3/2to4/2 4/2to3/2 3/2to2/2 2/2to1/2 1/2to0/2 0/2to0/3 0/3to0/2 0/2to0/1 0/1to1/1 1/1to2/1 2/1to3/1 3/1to4/1 4/1to3/1 3/1to2/1 2/1to1/1 1/1to1/2 1/2to2/2 2/2to3/2 3/2to4/2 4/2to4/1 4/1to4/2 4/2to4/3 4/3to3/3 3/3to2/3 2/3to1/3 1/3to1/2 1/2to1/1"/>
    <route id="route47" edges="3/1to4/1 4/1to3/1 3/1to2/1 2/1to1/1 1/1to0/1 0/1to0/2 0/2to0/3 0/3to0/4 0/4to0/3 0/3to0/2 0/2to0/1 0/1to1/1 1/1to1/0 1/0to0/0 0/0to0/1 0/1to1/1 1/1to2/1 2/1to3/1 3/1to2/1 2/1to2/2 2/2to2/3 2/3to2/4 2/4to3/4 3/4to4/4 4/4to3/4 3/4to3/3 3/3to3/4 3/4to2/4 2/4to2/3 2/3to2/2 2/2to2/1 2/1to2/0 2/0to1/0 1/0to1/1 1/1to2/1 2/1to2/0 2/0to3/0 3/0to2/0 2/0to2/1 2/1to3/1 3/1to2/1 2/1to1/1 1/1to0/1 0/1to0/2 0/2to0/3 0/3to0/4 0/4to0/3 0/3to1/3 1/3to2/3 2/3to2/4 2/4to1/4 1/4to1/3 1/3to0/3 0/3to1/3 1/3to1/2 1/2to2/2 2/2to2/1 2/1to3/1 3/1to4/1 4/1to4/0 4/0to3/0 3/0to2/0 2/0to2/1 2/1to2/2"/>
    <route id="route48" edges="2/1to2/0 2/0to3/0 3/0to4/0 4/0to3/0 3/0to3/1 3/1to3/2 3/2to3/3 3/3to4/3 4/3to3/3 3/3to3/4 3/4to3/3 3/3to4/3 4/3to4/4 4/4to3/4 3/4to2/4 2/4to1/4 1/4to1/3 1/3to0/3 0/3to0/2 0/2to0/1 0/1to1/1 1/1to2/1 2/1to3/1 3/1to4/1 4/1to3/1 3/1to3/2 3/2to3/3 3/3to3/4 3/4to2/4 2/4to2/3 2/3to2/4 2/4to2/3 2/3to2/2 2/2to2/1 2/1to3/1 3/1to2/1 2/1to2/2 2/2to2/3 2/3to2/2 2/2to1/2 1/2to1/3 1/3to2/3 2/3to2/2 2/2to3/2 3/2to4/2 4/2to4/1 4/1to4/2 4/2to3/2 3/2to2/2 2/2to2/3 2/3to3/3 3/3to2/3 2/3to2/4 2/4to2/3 2/3to2/4 2/4to2/3 2/3to2/2 2/2to2/1 2/1to2/0 2/0to3/0 3/0to4/0 4/0to3/0 3/0to2/0 2/0to2/1"/>
    <route id="route49" edges="2/1to1/1 1/1to1/0 1/0to2/0 2/0to3/0 3/0to4/0 4/0to3/0 3/0to2/0 2/0to2/1 2/1to2/2 2/2to2/3 2/3to1/3 1/3to1/2 1/2to1/1 1/1to1/2 1/2to1/3 1/3to1/4 1/4to0/4 0/4to0/3 0/3to0/2 0/2to0/1 0/1to1/1 1/1to1/0 1/0to0/0 0/0to0/1 0/1to0/2 0/2to0/3 0/3to1/3 1/3to1/4 1/4to2/4 2/4to3/4 3/4to2/4 2/4to1/4 1/4to1/3 1/3to2/3 2/3to2/2 2/2to2/1 2/1to2/0 2/0to3/0 3/0to4/0 4/0to4/1 4/1to3/1 3/1to2/1 2/1to1/1 1/1to0/1 0/1to0/2 0/2to0/3 0/3to0/2 0/2to1/2 1/2to2/2 2/2to3/2 3/2to3/3 3/3to2/3 2/3to1/3 1/3to1/4 1/4to2/4 2/4to2/3 2/3to2/2 2/2to2/1 2/1to2/0 2/0to2/1 2/1to2/2 2/2to3/2 3/2to4/2 4/2to3/2"/>