<?xml version="1.0" encoding="UTF-8"?>

<!-- generated on Sat Jun 11 17:24:59 2016 by SUMO netgenerate Version 0.25.0
<?xml version="1.0" encoding="UTF-8"?>

<configuration xmlns:xsi="http://www.w3.org/2001/XMLSchema-instance" xsi:noNamespaceSchemaLocation="http://sumo.dlr.de/xsd/netgenerateConfiguration.xsd">

    <grid_network>
        <grid value="true"/>
        <grid.number value="13"/>
        <grid.length value="250"/>
    </grid_network>

    <output>
        <output-file value="vehDist.net.xml"/>
    </output>

    <processing>
        <no-turnarounds value="true"/>
    </processing>

    <building_defaults>
        <default.lanenumber value="1"/>
        <default.speed value="85"/>
    </building_defaults>

</configuration>
-->

<net version="0.25" xmlns:xsi="http://www.w3.org/2001/XMLSchema-instance" xsi:noNamespaceSchemaLocation="http://sumo.dlr.de/xsd/net_file.xsd">

    <location netOffset="0.00,0.00" convBoundary="0.00,0.00,3000.00,3000.00" origBoundary="0.00,0.00,3000.00,3000.00" projParameter="!"/>

    <edge id=":0/0_0" function="internal">
        <lane id=":0/0_0_0" index="0" speed="85.00" length="7.90" shape="-1.65,3.25 -1.34,1.11 -0.43,-0.43 1.11,-1.34 3.25,-1.65"/>
    </edge>
    <edge id=":0/0_1" function="internal">
        <lane id=":0/0_1_0" index="0" speed="85.00" length="2.58" shape="3.25,1.65 2.55,1.75 2.05,2.05 1.75,2.55 1.65,3.25"/>
    </edge>
    <edge id=":0/1_0" function="internal">
        <lane id=":0/1_0_0" index="0" speed="85.00" length="9.50" shape="-1.65,254.75 -1.65,245.25"/>
    </edge>
    <edge id=":0/1_1" function="internal">
        <lane id=":0/1_1_0" index="0" speed="85.00" length="5.28" shape="-1.65,254.75 -1.25,251.95 -0.05,249.95 0.05,249.89"/>
    </edge>
    <edge id=":0/1_6" function="internal">
        <lane id=":0/1_6_0" index="0" speed="85.00" length="5.04" shape="0.05,249.89 1.95,248.75 4.75,248.35"/>
    </edge>
    <edge id=":0/1_2" function="internal">
        <lane id=":0/1_2_0" index="0" speed="85.00" length="5.00" shape="4.75,251.65 3.39,251.84 2.43,252.43 1.84,253.39 1.65,254.75"/>
    </edge>
    <edge id=":0/1_3" function="internal">
        <lane id=":0/1_3_0" index="0" speed="85.00" length="10.32" shape="4.75,251.65 1.95,251.25 -0.05,250.05 -1.25,248.05 -1.65,245.25"/>
    </edge>
    <edge id=":0/1_4" function="internal">
        <lane id=":0/1_4_0" index="0" speed="85.00" length="5.00" shape="1.65,245.25 1.84,246.61 2.42,247.57 3.39,248.16 4.75,248.35"/>
    </edge>
    <edge id=":0/1_5" function="internal">
        <lane id=":0/1_5_0" index="0" speed="85.00" length="9.50" shape="1.65,245.25 1.65,254.75"/>
    </edge>
    <edge id=":0/a_0" function="internal">
        <lane id=":0/a_0_0" index="0" speed="85.00" length="9.50" shape="-1.65,2504.75 -1.65,2495.25"/>
    </edge>
    <edge id=":0/a_1" function="internal">
        <lane id=":0/a_1_0" index="0" speed="85.00" length="5.28" shape="-1.65,2504.75 -1.25,2501.95 -0.05,2499.95 0.05,2499.89"/>
    </edge>
    <edge id=":0/a_6" function="internal">
        <lane id=":0/a_6_0" index="0" speed="85.00" length="5.04" shape="0.05,2499.89 1.95,2498.75 4.75,2498.35"/>
    </edge>
    <edge id=":0/a_2" function="internal">
        <lane id=":0/a_2_0" index="0" speed="85.00" length="5.00" shape="4.75,2501.65 3.39,2501.84 2.43,2502.43 1.84,2503.39 1.65,2504.75"/>
    </edge>
    <edge id=":0/a_3" function="internal">
        <lane id=":0/a_3_0" index="0" speed="85.00" length="10.32" shape="4.75,2501.65 1.95,2501.25 -0.05,2500.05 -1.25,2498.05 -1.65,2495.25"/>
    </edge>
    <edge id=":0/a_4" function="internal">
        <lane id=":0/a_4_0" index="0" speed="85.00" length="5.00" shape="1.65,2495.25 1.84,2496.61 2.42,2497.57 3.39,2498.16 4.75,2498.35"/>
    </edge>
    <edge id=":0/a_5" function="internal">
        <lane id=":0/a_5_0" index="0" speed="85.00" length="9.50" shape="1.65,2495.25 1.65,2504.75"/>
    </edge>
    <edge id=":0/b_0" function="internal">
        <lane id=":0/b_0_0" index="0" speed="85.00" length="9.50" shape="-1.65,2754.75 -1.65,2745.25"/>
    </edge>
    <edge id=":0/b_1" function="internal">
        <lane id=":0/b_1_0" index="0" speed="85.00" length="5.28" shape="-1.65,2754.75 -1.25,2751.95 -0.05,2749.95 0.05,2749.89"/>
    </edge>
    <edge id=":0/b_6" function="internal">
        <lane id=":0/b_6_0" index="0" speed="85.00" length="5.04" shape="0.05,2749.89 1.95,2748.75 4.75,2748.35"/>
    </edge>
    <edge id=":0/b_2" function="internal">
        <lane id=":0/b_2_0" index="0" speed="85.00" length="5.00" shape="4.75,2751.65 3.39,2751.84 2.43,2752.43 1.84,2753.39 1.65,2754.75"/>
    </edge>
    <edge id=":0/b_3" function="internal">
        <lane id=":0/b_3_0" index="0" speed="85.00" length="10.32" shape="4.75,2751.65 1.95,2751.25 -0.05,2750.05 -1.25,2748.05 -1.65,2745.25"/>
    </edge>
    <edge id=":0/b_4" function="internal">
        <lane id=":0/b_4_0" index="0" speed="85.00" length="5.00" shape="1.65,2745.25 1.84,2746.61 2.42,2747.58 3.39,2748.16 4.75,2748.35"/>
    </edge>
    <edge id=":0/b_5" function="internal">
        <lane id=":0/b_5_0" index="0" speed="85.00" length="9.50" shape="1.65,2745.25 1.65,2754.75"/>
    </edge>
    <edge id=":0/c_0" function="internal">
        <lane id=":0/c_0_0" index="0" speed="85.00" length="7.90" shape="3.25,3001.65 1.11,3001.34 -0.43,3000.43 -1.34,2998.89 -1.65,2996.75"/>
    </edge>
    <edge id=":0/c_1" function="internal">
        <lane id=":0/c_1_0" index="0" speed="85.00" length="2.58" shape="1.65,2996.75 1.75,2997.45 2.05,2997.95 2.55,2998.25 3.25,2998.35"/>
    </edge>
    <edge id=":0/2_0" function="internal">
        <lane id=":0/2_0_0" index="0" speed="85.00" length="9.50" shape="-1.65,504.75 -1.65,495.25"/>
    </edge>
    <edge id=":0/2_1" function="internal">
        <lane id=":0/2_1_0" index="0" speed="85.00" length="5.28" shape="-1.65,504.75 -1.25,501.95 -0.05,499.95 0.05,499.89"/>
    </edge>
    <edge id=":0/2_6" function="internal">
        <lane id=":0/2_6_0" index="0" speed="85.00" length="5.04" shape="0.05,499.89 1.95,498.75 4.75,498.35"/>
    </edge>
    <edge id=":0/2_2" function="internal">
        <lane id=":0/2_2_0" index="0" speed="85.00" length="5.00" shape="4.75,501.65 3.39,501.84 2.43,502.42 1.84,503.39 1.65,504.75"/>
    </edge>
    <edge id=":0/2_3" function="internal">
        <lane id=":0/2_3_0" index="0" speed="85.00" length="10.32" shape="4.75,501.65 1.95,501.25 -0.05,500.05 -1.25,498.05 -1.65,495.25"/>
    </edge>
    <edge id=":0/2_4" function="internal">
        <lane id=":0/2_4_0" index="0" speed="85.00" length="5.00" shape="1.65,495.25 1.84,496.61 2.42,497.58 3.39,498.16 4.75,498.35"/>
    </edge>
    <edge id=":0/2_5" function="internal">
        <lane id=":0/2_5_0" index="0" speed="85.00" length="9.50" shape="1.65,495.25 1.65,504.75"/>
    </edge>
    <edge id=":0/3_0" function="internal">
        <lane id=":0/3_0_0" index="0" speed="85.00" length="9.50" shape="-1.65,754.75 -1.65,745.25"/>
    </edge>
    <edge id=":0/3_1" function="internal">
        <lane id=":0/3_1_0" index="0" speed="85.00" length="5.28" shape="-1.65,754.75 -1.25,751.95 -0.05,749.95 0.05,749.89"/>
    </edge>
    <edge id=":0/3_6" function="internal">
        <lane id=":0/3_6_0" index="0" speed="85.00" length="5.04" shape="0.05,749.89 1.95,748.75 4.75,748.35"/>
    </edge>
    <edge id=":0/3_2" function="internal">
        <lane id=":0/3_2_0" index="0" speed="85.00" length="5.00" shape="4.75,751.65 3.39,751.84 2.43,752.42 1.84,753.39 1.65,754.75"/>
    </edge>
    <edge id=":0/3_3" function="internal">
        <lane id=":0/3_3_0" index="0" speed="85.00" length="10.32" shape="4.75,751.65 1.95,751.25 -0.05,750.05 -1.25,748.05 -1.65,745.25"/>
    </edge>
    <edge id=":0/3_4" function="internal">
        <lane id=":0/3_4_0" index="0" speed="85.00" length="5.00" shape="1.65,745.25 1.84,746.61 2.42,747.57 3.39,748.16 4.75,748.35"/>
    </edge>
    <edge id=":0/3_5" function="internal">
        <lane id=":0/3_5_0" index="0" speed="85.00" length="9.50" shape="1.65,745.25 1.65,754.75"/>
    </edge>
    <edge id=":0/4_0" function="internal">
        <lane id=":0/4_0_0" index="0" speed="85.00" length="9.50" shape="-1.65,1004.75 -1.65,995.25"/>
    </edge>
    <edge id=":0/4_1" function="internal">
        <lane id=":0/4_1_0" index="0" speed="85.00" length="5.28" shape="-1.65,1004.75 -1.25,1001.95 -0.05,999.95 0.05,999.89"/>
    </edge>
    <edge id=":0/4_6" function="internal">
        <lane id=":0/4_6_0" index="0" speed="85.00" length="5.04" shape="0.05,999.89 1.95,998.75 4.75,998.35"/>
    </edge>
    <edge id=":0/4_2" function="internal">
        <lane id=":0/4_2_0" index="0" speed="85.00" length="5.00" shape="4.75,1001.65 3.39,1001.84 2.43,1002.42 1.84,1003.39 1.65,1004.75"/>
    </edge>
    <edge id=":0/4_3" function="internal">
        <lane id=":0/4_3_0" index="0" speed="85.00" length="10.32" shape="4.75,1001.65 1.95,1001.25 -0.05,1000.05 -1.25,998.05 -1.65,995.25"/>
    </edge>
    <edge id=":0/4_4" function="internal">
        <lane id=":0/4_4_0" index="0" speed="85.00" length="5.00" shape="1.65,995.25 1.84,996.61 2.42,997.57 3.39,998.16 4.75,998.35"/>
    </edge>
    <edge id=":0/4_5" function="internal">
        <lane id=":0/4_5_0" index="0" speed="85.00" length="9.50" shape="1.65,995.25 1.65,1004.75"/>
    </edge>
    <edge id=":0/5_0" function="internal">
        <lane id=":0/5_0_0" index="0" speed="85.00" length="9.50" shape="-1.65,1254.75 -1.65,1245.25"/>
    </edge>
    <edge id=":0/5_1" function="internal">
        <lane id=":0/5_1_0" index="0" speed="85.00" length="5.28" shape="-1.65,1254.75 -1.25,1251.95 -0.05,1249.95 0.05,1249.89"/>
    </edge>
    <edge id=":0/5_6" function="internal">
        <lane id=":0/5_6_0" index="0" speed="85.00" length="5.04" shape="0.05,1249.89 1.95,1248.75 4.75,1248.35"/>
    </edge>
    <edge id=":0/5_2" function="internal">
        <lane id=":0/5_2_0" index="0" speed="85.00" length="5.00" shape="4.75,1251.65 3.39,1251.84 2.43,1252.43 1.84,1253.39 1.65,1254.75"/>
    </edge>
    <edge id=":0/5_3" function="internal">
        <lane id=":0/5_3_0" index="0" speed="85.00" length="10.32" shape="4.75,1251.65 1.95,1251.25 -0.05,1250.05 -1.25,1248.05 -1.65,1245.25"/>
    </edge>
    <edge id=":0/5_4" function="internal">
        <lane id=":0/5_4_0" index="0" speed="85.00" length="5.00" shape="1.65,1245.25 1.84,1246.61 2.42,1247.57 3.39,1248.16 4.75,1248.35"/>
    </edge>
    <edge id=":0/5_5" function="internal">
        <lane id=":0/5_5_0" index="0" speed="85.00" length="9.50" shape="1.65,1245.25 1.65,1254.75"/>
    </edge>
    <edge id=":0/6_0" function="internal">
        <lane id=":0/6_0_0" index="0" speed="85.00" length="9.50" shape="-1.65,1504.75 -1.65,1495.25"/>
    </edge>
    <edge id=":0/6_1" function="internal">
        <lane id=":0/6_1_0" index="0" speed="85.00" length="5.28" shape="-1.65,1504.75 -1.25,1501.95 -0.05,1499.95 0.05,1499.89"/>
    </edge>
    <edge id=":0/6_6" function="internal">
        <lane id=":0/6_6_0" index="0" speed="85.00" length="5.04" shape="0.05,1499.89 1.95,1498.75 4.75,1498.35"/>
    </edge>
    <edge id=":0/6_2" function="internal">
        <lane id=":0/6_2_0" index="0" speed="85.00" length="5.00" shape="4.75,1501.65 3.39,1501.84 2.43,1502.43 1.84,1503.39 1.65,1504.75"/>
    </edge>
    <edge id=":0/6_3" function="internal">
        <lane id=":0/6_3_0" index="0" speed="85.00" length="10.32" shape="4.75,1501.65 1.95,1501.25 -0.05,1500.05 -1.25,1498.05 -1.65,1495.25"/>
    </edge>
    <edge id=":0/6_4" function="internal">
        <lane id=":0/6_4_0" index="0" speed="85.00" length="5.00" shape="1.65,1495.25 1.84,1496.61 2.42,1497.57 3.39,1498.16 4.75,1498.35"/>
    </edge>
    <edge id=":0/6_5" function="internal">
        <lane id=":0/6_5_0" index="0" speed="85.00" length="9.50" shape="1.65,1495.25 1.65,1504.75"/>
    </edge>
    <edge id=":0/7_0" function="internal">
        <lane id=":0/7_0_0" index="0" speed="85.00" length="9.50" shape="-1.65,1754.75 -1.65,1745.25"/>
    </edge>
    <edge id=":0/7_1" function="internal">
        <lane id=":0/7_1_0" index="0" speed="85.00" length="5.28" shape="-1.65,1754.75 -1.25,1751.95 -0.05,1749.95 0.05,1749.89"/>
    </edge>
    <edge id=":0/7_6" function="internal">
        <lane id=":0/7_6_0" index="0" speed="85.00" length="5.04" shape="0.05,1749.89 1.95,1748.75 4.75,1748.35"/>
    </edge>
    <edge id=":0/7_2" function="internal">
        <lane id=":0/7_2_0" index="0" speed="85.00" length="5.00" shape="4.75,1751.65 3.39,1751.84 2.43,1752.43 1.84,1753.39 1.65,1754.75"/>
    </edge>
    <edge id=":0/7_3" function="internal">
        <lane id=":0/7_3_0" index="0" speed="85.00" length="10.32" shape="4.75,1751.65 1.95,1751.25 -0.05,1750.05 -1.25,1748.05 -1.65,1745.25"/>
    </edge>
    <edge id=":0/7_4" function="internal">
        <lane id=":0/7_4_0" index="0" speed="85.00" length="5.00" shape="1.65,1745.25 1.84,1746.61 2.42,1747.57 3.39,1748.16 4.75,1748.35"/>
    </edge>
    <edge id=":0/7_5" function="internal">
        <lane id=":0/7_5_0" index="0" speed="85.00" length="9.50" shape="1.65,1745.25 1.65,1754.75"/>
    </edge>
    <edge id=":0/8_0" function="internal">
        <lane id=":0/8_0_0" index="0" speed="85.00" length="9.50" shape="-1.65,2004.75 -1.65,1995.25"/>
    </edge>
    <edge id=":0/8_1" function="internal">
        <lane id=":0/8_1_0" index="0" speed="85.00" length="5.28" shape="-1.65,2004.75 -1.25,2001.95 -0.05,1999.95 0.05,1999.89"/>
    </edge>
    <edge id=":0/8_6" function="internal">
        <lane id=":0/8_6_0" index="0" speed="85.00" length="5.04" shape="0.05,1999.89 1.95,1998.75 4.75,1998.35"/>
    </edge>
    <edge id=":0/8_2" function="internal">
        <lane id=":0/8_2_0" index="0" speed="85.00" length="5.00" shape="4.75,2001.65 3.39,2001.84 2.43,2002.43 1.84,2003.39 1.65,2004.75"/>
    </edge>
    <edge id=":0/8_3" function="internal">
        <lane id=":0/8_3_0" index="0" speed="85.00" length="10.32" shape="4.75,2001.65 1.95,2001.25 -0.05,2000.05 -1.25,1998.05 -1.65,1995.25"/>
    </edge>
    <edge id=":0/8_4" function="internal">
        <lane id=":0/8_4_0" index="0" speed="85.00" length="5.00" shape="1.65,1995.25 1.84,1996.61 2.42,1997.57 3.39,1998.16 4.75,1998.35"/>
    </edge>
    <edge id=":0/8_5" function="internal">
        <lane id=":0/8_5_0" index="0" speed="85.00" length="9.50" shape="1.65,1995.25 1.65,2004.75"/>
    </edge>
    <edge id=":0/9_0" function="internal">
        <lane id=":0/9_0_0" index="0" speed="85.00" length="9.50" shape="-1.65,2254.75 -1.65,2245.25"/>
    </edge>
    <edge id=":0/9_1" function="internal">
        <lane id=":0/9_1_0" index="0" speed="85.00" length="5.28" shape="-1.65,2254.75 -1.25,2251.95 -0.05,2249.95 0.05,2249.89"/>
    </edge>
    <edge id=":0/9_6" function="internal">
        <lane id=":0/9_6_0" index="0" speed="85.00" length="5.04" shape="0.05,2249.89 1.95,2248.75 4.75,2248.35"/>
    </edge>
    <edge id=":0/9_2" function="internal">
        <lane id=":0/9_2_0" index="0" speed="85.00" length="5.00" shape="4.75,2251.65 3.39,2251.84 2.43,2252.43 1.84,2253.39 1.65,2254.75"/>
    </edge>
    <edge id=":0/9_3" function="internal">
        <lane id=":0/9_3_0" index="0" speed="85.00" length="10.32" shape="4.75,2251.65 1.95,2251.25 -0.05,2250.05 -1.25,2248.05 -1.65,2245.25"/>
    </edge>
    <edge id=":0/9_4" function="internal">
        <lane id=":0/9_4_0" index="0" speed="85.00" length="5.00" shape="1.65,2245.25 1.84,2246.61 2.42,2247.57 3.39,2248.16 4.75,2248.35"/>
    </edge>
    <edge id=":0/9_5" function="internal">
        <lane id=":0/9_5_0" index="0" speed="85.00" length="9.50" shape="1.65,2245.25 1.65,2254.75"/>
    </edge>
    <edge id=":1/0_0" function="internal">
        <lane id=":1/0_0_0" index="0" speed="85.00" length="5.00" shape="248.35,4.75 248.16,3.39 247.57,2.43 246.61,1.84 245.25,1.65"/>
    </edge>
    <edge id=":1/0_1" function="internal">
        <lane id=":1/0_1_0" index="0" speed="85.00" length="10.32" shape="248.35,4.75 248.75,1.95 249.95,-0.05 251.95,-1.25 254.75,-1.65"/>
    </edge>
    <edge id=":1/0_2" function="internal">
        <lane id=":1/0_2_0" index="0" speed="85.00" length="5.00" shape="254.75,1.65 253.39,1.84 252.42,2.42 251.84,3.39 251.65,4.75"/>
    </edge>
    <edge id=":1/0_3" function="internal">
        <lane id=":1/0_3_0" index="0" speed="85.00" length="9.50" shape="254.75,1.65 245.25,1.65"/>
    </edge>
    <edge id=":1/0_4" function="internal">
        <lane id=":1/0_4_0" index="0" speed="85.00" length="9.50" shape="245.25,-1.65 254.75,-1.65"/>
    </edge>
    <edge id=":1/0_5" function="internal">
        <lane id=":1/0_5_0" index="0" speed="85.00" length="5.28" shape="245.25,-1.65 248.05,-1.25 250.05,-0.05 250.11,0.05"/>
    </edge>
    <edge id=":1/0_6" function="internal">
        <lane id=":1/0_6_0" index="0" speed="85.00" length="5.04" shape="250.11,0.05 251.25,1.95 251.65,4.75"/>
    </edge>
    <edge id=":1/1_0" function="internal">
        <lane id=":1/1_0_0" index="0" speed="85.00" length="5.00" shape="248.35,254.75 248.16,253.39 247.57,252.42 246.61,251.84 245.25,251.65"/>
    </edge>
    <edge id=":1/1_1" function="internal">
        <lane id=":1/1_1_0" index="0" speed="85.00" length="9.50" shape="248.35,254.75 248.35,245.25"/>
    </edge>
    <edge id=":1/1_2" function="internal">
        <lane id=":1/1_2_0" index="0" speed="85.00" length="5.28" shape="248.35,254.75 248.75,251.95 249.95,249.95 250.05,249.89"/>
    </edge>
    <edge id=":1/1_c" function="internal">
        <lane id=":1/1_c_0" index="0" speed="85.00" length="5.04" shape="250.05,249.89 251.95,248.75 254.75,248.35"/>
    </edge>
    <edge id=":1/1_3" function="internal">
        <lane id=":1/1_3_0" index="0" speed="85.00" length="5.00" shape="254.75,251.65 253.39,251.84 252.42,252.43 251.84,253.39 251.65,254.75"/>
    </edge>
    <edge id=":1/1_4" function="internal">
        <lane id=":1/1_4_0" index="0" speed="85.00" length="9.50" shape="254.75,251.65 245.25,251.65"/>
    </edge>
    <edge id=":1/1_5" function="internal">
        <lane id=":1/1_5_0" index="0" speed="85.00" length="10.32" shape="254.75,251.65 251.95,251.25 249.95,250.05 248.75,248.05 248.35,245.25"/>
    </edge>
    <edge id=":1/1_6" function="internal">
        <lane id=":1/1_6_0" index="0" speed="85.00" length="5.00" shape="251.65,245.25 251.84,246.61 252.43,247.58 253.39,248.16 254.75,248.35"/>
    </edge>
    <edge id=":1/1_7" function="internal">
        <lane id=":1/1_7_0" index="0" speed="85.00" length="9.50" shape="251.65,245.25 251.65,254.75"/>
    </edge>
    <edge id=":1/1_8" function="internal">
        <lane id=":1/1_8_0" index="0" speed="85.00" length="5.28" shape="251.65,245.25 251.25,248.05 250.05,250.05 249.95,250.11"/>
    </edge>
    <edge id=":1/1_d" function="internal">
        <lane id=":1/1_d_0" index="0" speed="85.00" length="5.04" shape="249.95,250.11 248.05,251.25 245.25,251.65"/>
    </edge>
    <edge id=":1/1_9" function="internal">
        <lane id=":1/1_9_0" index="0" speed="85.00" length="5.00" shape="245.25,248.35 246.61,248.16 247.58,247.57 248.16,246.61 248.35,245.25"/>
    </edge>
    <edge id=":1/1_a" function="internal">
        <lane id=":1/1_a_0" index="0" speed="85.00" length="9.50" shape="245.25,248.35 254.75,248.35"/>
    </edge>
    <edge id=":1/1_b" function="internal">
        <lane id=":1/1_b_0" index="0" speed="85.00" length="10.32" shape="245.25,248.35 248.05,248.75 250.05,249.95 251.25,251.95 251.65,254.75"/>
    </edge>
    <edge id=":1/a_0" function="internal">
        <lane id=":1/a_0_0" index="0" speed="85.00" length="5.00" shape="248.35,2504.75 248.16,2503.39 247.57,2502.43 246.61,2501.84 245.25,2501.65"/>
    </edge>
    <edge id=":1/a_1" function="internal">
        <lane id=":1/a_1_0" index="0" speed="85.00" length="9.50" shape="248.35,2504.75 248.35,2495.25"/>
    </edge>
    <edge id=":1/a_2" function="internal">
        <lane id=":1/a_2_0" index="0" speed="85.00" length="5.28" shape="248.35,2504.75 248.75,2501.95 249.95,2499.95 250.05,2499.89"/>
    </edge>
    <edge id=":1/a_c" function="internal">
        <lane id=":1/a_c_0" index="0" speed="85.00" length="5.04" shape="250.05,2499.89 251.95,2498.75 254.75,2498.35"/>
    </edge>
    <edge id=":1/a_3" function="internal">
        <lane id=":1/a_3_0" index="0" speed="85.00" length="5.00" shape="254.75,2501.65 253.39,2501.84 252.42,2502.43 251.84,2503.39 251.65,2504.75"/>
    </edge>
    <edge id=":1/a_4" function="internal">
        <lane id=":1/a_4_0" index="0" speed="85.00" length="9.50" shape="254.75,2501.65 245.25,2501.65"/>
    </edge>
    <edge id=":1/a_5" function="internal">
        <lane id=":1/a_5_0" index="0" speed="85.00" length="10.32" shape="254.75,2501.65 251.95,2501.25 249.95,2500.05 248.75,2498.05 248.35,2495.25"/>
    </edge>
    <edge id=":1/a_6" function="internal">
        <lane id=":1/a_6_0" index="0" speed="85.00" length="5.00" shape="251.65,2495.25 251.84,2496.61 252.43,2497.57 253.39,2498.16 254.75,2498.35"/>
    </edge>
    <edge id=":1/a_7" function="internal">
        <lane id=":1/a_7_0" index="0" speed="85.00" length="9.50" shape="251.65,2495.25 251.65,2504.75"/>
    </edge>
    <edge id=":1/a_8" function="internal">
        <lane id=":1/a_8_0" index="0" speed="85.00" length="5.28" shape="251.65,2495.25 251.25,2498.05 250.05,2500.05 249.95,2500.11"/>
    </edge>
    <edge id=":1/a_d" function="internal">
        <lane id=":1/a_d_0" index="0" speed="85.00" length="5.04" shape="249.95,2500.11 248.05,2501.25 245.25,2501.65"/>
    </edge>
    <edge id=":1/a_9" function="internal">
        <lane id=":1/a_9_0" index="0" speed="85.00" length="5.00" shape="245.25,2498.35 246.61,2498.16 247.58,2497.57 248.16,2496.61 248.35,2495.25"/>
    </edge>
    <edge id=":1/a_a" function="internal">
        <lane id=":1/a_a_0" index="0" speed="85.00" length="9.50" shape="245.25,2498.35 254.75,2498.35"/>
    </edge>
    <edge id=":1/a_b" function="internal">
        <lane id=":1/a_b_0" index="0" speed="85.00" length="10.32" shape="245.25,2498.35 248.05,2498.75 250.05,2499.95 251.25,2501.95 251.65,2504.75"/>
    </edge>
    <edge id=":1/b_0" function="internal">
        <lane id=":1/b_0_0" index="0" speed="85.00" length="5.00" shape="248.35,2754.75 248.16,2753.39 247.57,2752.42 246.61,2751.84 245.25,2751.65"/>
    </edge>
    <edge id=":1/b_1" function="internal">
        <lane id=":1/b_1_0" index="0" speed="85.00" length="9.50" shape="248.35,2754.75 248.35,2745.25"/>
    </edge>
    <edge id=":1/b_2" function="internal">
        <lane id=":1/b_2_0" index="0" speed="85.00" length="5.28" shape="248.35,2754.75 248.75,2751.95 249.95,2749.95 250.05,2749.89"/>
    </edge>
    <edge id=":1/b_c" function="internal">
        <lane id=":1/b_c_0" index="0" speed="85.00" length="5.04" shape="250.05,2749.89 251.95,2748.75 254.75,2748.35"/>
    </edge>
    <edge id=":1/b_3" function="internal">
        <lane id=":1/b_3_0" index="0" speed="85.00" length="5.00" shape="254.75,2751.65 253.39,2751.84 252.42,2752.43 251.84,2753.39 251.65,2754.75"/>
    </edge>
    <edge id=":1/b_4" function="internal">
        <lane id=":1/b_4_0" index="0" speed="85.00" length="9.50" shape="254.75,2751.65 245.25,2751.65"/>
    </edge>
    <edge id=":1/b_5" function="internal">
        <lane id=":1/b_5_0" index="0" speed="85.00" length="10.32" shape="254.75,2751.65 251.95,2751.25 249.95,2750.05 248.75,2748.05 248.35,2745.25"/>
    </edge>
    <edge id=":1/b_6" function="internal">
        <lane id=":1/b_6_0" index="0" speed="85.00" length="5.00" shape="251.65,2745.25 251.84,2746.61 252.43,2747.58 253.39,2748.16 254.75,2748.35"/>
    </edge>
    <edge id=":1/b_7" function="internal">
        <lane id=":1/b_7_0" index="0" speed="85.00" length="9.50" shape="251.65,2745.25 251.65,2754.75"/>
    </edge>
    <edge id=":1/b_8" function="internal">
        <lane id=":1/b_8_0" index="0" speed="85.00" length="5.28" shape="251.65,2745.25 251.25,2748.05 250.05,2750.05 249.95,2750.11"/>
    </edge>
    <edge id=":1/b_d" function="internal">
        <lane id=":1/b_d_0" index="0" speed="85.00" length="5.04" shape="249.95,2750.11 248.05,2751.25 245.25,2751.65"/>
    </edge>
    <edge id=":1/b_9" function="internal">
        <lane id=":1/b_9_0" index="0" speed="85.00" length="5.00" shape="245.25,2748.35 246.61,2748.16 247.58,2747.57 248.16,2746.61 248.35,2745.25"/>
    </edge>
    <edge id=":1/b_a" function="internal">
        <lane id=":1/b_a_0" index="0" speed="85.00" length="9.50" shape="245.25,2748.35 254.75,2748.35"/>
    </edge>
    <edge id=":1/b_b" function="internal">
        <lane id=":1/b_b_0" index="0" speed="85.00" length="10.32" shape="245.25,2748.35 248.05,2748.75 250.05,2749.95 251.25,2751.95 251.65,2754.75"/>
    </edge>
    <edge id=":1/c_0" function="internal">
        <lane id=":1/c_0_0" index="0" speed="85.00" length="9.50" shape="254.75,3001.65 245.25,3001.65"/>
    </edge>
    <edge id=":1/c_1" function="internal">
        <lane id=":1/c_1_0" index="0" speed="85.00" length="5.28" shape="254.75,3001.65 251.95,3001.25 249.95,3000.05 249.89,2999.95"/>
    </edge>
    <edge id=":1/c_6" function="internal">
        <lane id=":1/c_6_0" index="0" speed="85.00" length="5.04" shape="249.89,2999.95 248.75,2998.05 248.35,2995.25"/>
    </edge>
    <edge id=":1/c_2" function="internal">
        <lane id=":1/c_2_0" index="0" speed="85.00" length="5.00" shape="251.65,2995.25 251.84,2996.61 252.43,2997.58 253.39,2998.16 254.75,2998.35"/>
    </edge>
    <edge id=":1/c_3" function="internal">
        <lane id=":1/c_3_0" index="0" speed="85.00" length="10.32" shape="251.65,2995.25 251.25,2998.05 250.05,3000.05 248.05,3001.25 245.25,3001.65"/>
    </edge>
    <edge id=":1/c_4" function="internal">
        <lane id=":1/c_4_0" index="0" speed="85.00" length="5.00" shape="245.25,2998.35 246.61,2998.16 247.57,2997.57 248.16,2996.61 248.35,2995.25"/>
    </edge>
    <edge id=":1/c_5" function="internal">
        <lane id=":1/c_5_0" index="0" speed="85.00" length="9.50" shape="245.25,2998.35 254.75,2998.35"/>
    </edge>
    <edge id=":1/2_0" function="internal">
        <lane id=":1/2_0_0" index="0" speed="85.00" length="5.00" shape="248.35,504.75 248.16,503.39 247.57,502.42 246.61,501.84 245.25,501.65"/>
    </edge>
    <edge id=":1/2_1" function="internal">
        <lane id=":1/2_1_0" index="0" speed="85.00" length="9.50" shape="248.35,504.75 248.35,495.25"/>
    </edge>
    <edge id=":1/2_2" function="internal">
        <lane id=":1/2_2_0" index="0" speed="85.00" length="5.28" shape="248.35,504.75 248.75,501.95 249.95,499.95 250.05,499.89"/>
    </edge>
    <edge id=":1/2_c" function="internal">
        <lane id=":1/2_c_0" index="0" speed="85.00" length="5.04" shape="250.05,499.89 251.95,498.75 254.75,498.35"/>
    </edge>
    <edge id=":1/2_3" function="internal">
        <lane id=":1/2_3_0" index="0" speed="85.00" length="5.00" shape="254.75,501.65 253.39,501.84 252.42,502.42 251.84,503.39 251.65,504.75"/>
    </edge>
    <edge id=":1/2_4" function="internal">
        <lane id=":1/2_4_0" index="0" speed="85.00" length="9.50" shape="254.75,501.65 245.25,501.65"/>
    </edge>
    <edge id=":1/2_5" function="internal">
        <lane id=":1/2_5_0" index="0" speed="85.00" length="10.32" shape="254.75,501.65 251.95,501.25 249.95,500.05 248.75,498.05 248.35,495.25"/>
    </edge>
    <edge id=":1/2_6" function="internal">
        <lane id=":1/2_6_0" index="0" speed="85.00" length="5.00" shape="251.65,495.25 251.84,496.61 252.43,497.58 253.39,498.16 254.75,498.35"/>
    </edge>
    <edge id=":1/2_7" function="internal">
        <lane id=":1/2_7_0" index="0" speed="85.00" length="9.50" shape="251.65,495.25 251.65,504.75"/>
    </edge>
    <edge id=":1/2_8" function="internal">
        <lane id=":1/2_8_0" index="0" speed="85.00" length="5.28" shape="251.65,495.25 251.25,498.05 250.05,500.05 249.95,500.11"/>
    </edge>
    <edge id=":1/2_d" function="internal">
        <lane id=":1/2_d_0" index="0" speed="85.00" length="5.04" shape="249.95,500.11 248.05,501.25 245.25,501.65"/>
    </edge>
    <edge id=":1/2_9" function="internal">
        <lane id=":1/2_9_0" index="0" speed="85.00" length="5.00" shape="245.25,498.35 246.61,498.16 247.58,497.58 248.16,496.61 248.35,495.25"/>
    </edge>
    <edge id=":1/2_a" function="internal">
        <lane id=":1/2_a_0" index="0" speed="85.00" length="9.50" shape="245.25,498.35 254.75,498.35"/>
    </edge>
    <edge id=":1/2_b" function="internal">
        <lane id=":1/2_b_0" index="0" speed="85.00" length="10.32" shape="245.25,498.35 248.05,498.75 250.05,499.95 251.25,501.95 251.65,504.75"/>
    </edge>
    <edge id=":1/3_0" function="internal">
        <lane id=":1/3_0_0" index="0" speed="85.00" length="5.00" shape="248.35,754.75 248.16,753.39 247.57,752.43 246.61,751.84 245.25,751.65"/>
    </edge>
    <edge id=":1/3_1" function="internal">
        <lane id=":1/3_1_0" index="0" speed="85.00" length="9.50" shape="248.35,754.75 248.35,745.25"/>
    </edge>
    <edge id=":1/3_2" function="internal">
        <lane id=":1/3_2_0" index="0" speed="85.00" length="5.28" shape="248.35,754.75 248.75,751.95 249.95,749.95 250.05,749.89"/>
    </edge>
    <edge id=":1/3_c" function="internal">
        <lane id=":1/3_c_0" index="0" speed="85.00" length="5.04" shape="250.05,749.89 251.95,748.75 254.75,748.35"/>
    </edge>
    <edge id=":1/3_3" function="internal">
        <lane id=":1/3_3_0" index="0" speed="85.00" length="5.00" shape="254.75,751.65 253.39,751.84 252.42,752.42 251.84,753.39 251.65,754.75"/>
    </edge>
    <edge id=":1/3_4" function="internal">
        <lane id=":1/3_4_0" index="0" speed="85.00" length="9.50" shape="254.75,751.65 245.25,751.65"/>
    </edge>
    <edge id=":1/3_5" function="internal">
        <lane id=":1/3_5_0" index="0" speed="85.00" length="10.32" shape="254.75,751.65 251.95,751.25 249.95,750.05 248.75,748.05 248.35,745.25"/>
    </edge>
    <edge id=":1/3_6" function="internal">
        <lane id=":1/3_6_0" index="0" speed="85.00" length="5.00" shape="251.65,745.25 251.84,746.61 252.43,747.57 253.39,748.16 254.75,748.35"/>
    </edge>