<routes>

    <route id="route001" edges="4/1to4/2 4/2to3/2 3/2to2/2 2/2to1/2 1/2to0/2 0/2to0/1 0/1to0/0 0/0to1/0 1/0to1/1 1/1to0/1 0/1to0/2 0/2to0/3 0/3to1/3 1/3to1/4 1/4to2/4 2/4to3/4 3/4to4/4 4/4to3/4 3/4to3/3 3/3to3/4 3/4to2/4 2/4to1/4 1/4to1/3 1/3to2/3 2/3to1/3 1/3to1/2 1/2to1/1 1/1to1/0 1/0to1/1 1/1to2/1 2/1to3/1 3/1to3/0 3/0to4/0 4/0to3/0 3/0to3/1 3/1to3/2 3/2to4/2 4/2to4/3 4/3to3/3 3/3to2/3 2/3to1/3 1/3to2/3 2/3to2/2 2/2to2/1 2/1to3/1 3/1to4/1 4/1to4/0 4/0to3/0 3/0to3/1 3/1to3/2 3/2to2/2 2/2to1/2 1/2to1/3 1/3to1/4 1/4to2/4 2/4to3/4 3/4to4/4 4/4to3/4 3/4to2/4 2/4to1/4 1/4to1/3 1/3to1/2 1/2to1/1 1/1to1/2"/>
    <route id="route002" edges="1/2to1/3 1/3to1/2 1/2to1/1 1/1to2/1 2/1to3/1 3/1to4/1 4/1to3/1 3/1to2/1 2/1to1/1 1/1to1/2 1/2to1/1 1/1to1/0 1/0to1/1 1/1to1/2 1/2to1/3 1/3to1/4 1/4to1/3 1/3to1/2 1/2to1/1 1/1to2/1 2/1to3/1 3/1to2/1 2/1to1/1 1/1to1/2 1/2to1/3 1/3to2/3 2/3to2/4 2/4to3/4 3/4to2/4 2/4to1/4 1/4to1/3 1/3to1/2 1/2to1/1 1/1to1/0 1/0to1/1 1/1to2/1 2/1to3/1 3/1to4/1 4/1to4/0 4/0to3/0 3/0to3/1 3/1to4/1 4/1to3/1 3/1to2/1 2/1to2/2 2/2to2/3 2/3to1/3 1/3to0/3 0/3to0/2 0/2to0/1 0/1to1/1 1/1to1/2 1/2to1/3 1/3to1/4 1/4to1/3 1/3to1/2 1/2to1/1 1/1to2/1 2/1to3/1 3/1to4/1 4/1to3/1 3/1to3/0 3/0to4/0 4/0to3/0"/>
    <route id="route003" edges="0/2to0/3 0/3to0/2 0/2to0/1 0/1to1/1 1/1to1/0 1/0to2/0 2/0to3/0 3/0to2/0 2/0to2/1 2/1to2/2 2/2to2/3 2/3to2/4 2/4to1/4 1/4to1/3 1/3to0/3 0/3to0/2 0/2to0/1 0/1to1/1 1/1to1/2 1/2to1/3 1/3to2/3 2/3to3/3 3/3to3/2 3/2to4/2 4/2to3/2 3/2to3/1 3/1to3/0 3/0to3/1 3/1to3/2 3/2to3/3 3/3to3/2 3/2to3/3 3/3to4/3 4/3to3/3 3/3to2/3 2/3to2/2 2/2to2/1 2/1to2/2 2/2to2/3 2/3to2/2 2/2to2/1 2/1to3/1 3/1to4/1 4/1to4/2 4/2to3/2 3/2to3/1 3/1to3/2 3/2to2/2 2/2to1/2 1/2to1/3 1/3to1/4 1/4to2/4 2/4to2/3 2/3to3/3 3/3to3/2 3/2to3/1 3/1to3/0 3/0to4/0 4/0to3/0 3/0to2/0 2/0to1/0 1/0to1/1 1/1to0/1 0/1to0/2"/>
    <route id="route004" edges="1/3to2/3 2/3to1/3 1/3to1/4 1/4to1/3 1/3to2/3 2/3to3/3 3/3to4/3 4/3to3/3 3/3to2/3 2/3to1/3 1/3to2/3 2/3to2/4 2/4to2/3 2/3to2/2 2/2to2/1 2/1to3/1 3/1to4/1 4/1to4/2 4/2to4/3 4/3to3/3 3/3to2/3 2/3to1/3 1/3to1/2 1/2to1/3 1/3to1/4 1/4to0/4 0/4to0/3 0/3to0/2 0/2to0/3 0/3to1/3 1/3to1/4 1/4to2/4 2/4to3/4 3/4to2/4 2/4to2/3 2/3to2/2 2/2to2/1 2/1to2/0 2/0to3/0 3/0to4/0 4/0to3/0 3/0to2/0 2/0to1/0 1/0to1/1 1/1to1/0 1/0to1/1 1/1to2/1 2/1to3/1 3/1to2/1 2/1to1/1 1/1to1/2 1/2to1/3 1/3to2/3 2/3to1/3 1/3to1/2 1/2to1/3 1/3to0/3 0/3to0/2 0/2to0/1 0/1to0/0 0/0to0/1 0/1to0/2 0/2to0/3 0/3to1/3"/>
    <route id="route005" edges="3/1to2/1 2/1to1/1 1/1to1/0 1/0to2/0 2/0to3/0 3/0to3/1 3/1to2/1 2/1to1/1 1/1to0/1 0/1to0/2 0/2to0/3 0/3to0/4 0/4to1/4 1/4to1/3 1/3to1/2 1/2to1/1 1/1to1/0 1/0to0/0 0/0to1/0 1/0to2/0 2/0to3/0 3/0to3/1 3/1to3/2 3/2to3/3 3/3to3/4 3/4to4/4 4/4to3/4 3/4to2/4 2/4to2/3 2/3to2/2 2/2to2/1 2/1to2/0 2/0to2/1 2/1to1/1 1/1to1/2 1/2to1/3 1/3to1/4 1/4to1/3 1/3to1/4 1/4to0/4 0/4to1/4 1/4to1/3 1/3to1/2 1/2to1/1 1/1to2/1 2/1to3/1 3/1to4/1 4/1to3/1 3/1to3/0 3/0to3/1 3/1to2/1 2/1to1/1 1/1to1/2 1/2to1/3 1/3to1/2 1/2to1/1 1/1to2/1 2/1to2/2 2/2to2/1 2/1to3/1 3/1to4/1 4/1to3/1 3/1to2/1 2/1to1/1"/>
    <route id="route006" edges="1/4to1/3 1/3to1/4 1/4to2/4 2/4to3/4 3/4to2/4 2/4to1/4 1/4to1/3 1/3to1/2 1/2to1/1 1/1to1/0 1/0to1/1 1/1to0/1 0/1to0/2 0/2to1/2 1/2to0/2 0/2to0/3 0/3to1/3 1/3to1/4 1/4to1/3 1/3to1/2 1/2to1/1 1/1to1/0 1/0to1/1 1/1to1/2 1/2to1/3 1/3to1/4 1/4to2/4 2/4to3/4 3/4to2/4 2/4to1/4 1/4to2/4 2/4to1/4 1/4to1/3 1/3to1/2 1/2to1/1 1/1to0/1 0/1to0/2 0/2to1/2 1/2to2/2 2/2to3/2 3/2to2/2 2/2to1/2 1/2to1/3 1/3to1/4 1/4to0/4 0/4to0/3 0/3to0/2 0/2to0/1 0/1to1/1 1/1to2/1 2/1to3/1 3/1to4/1 4/1to3/1 3/1to2/1 2/1to2/2 2/2to2/1 2/1to1/1 1/1to1/2 1/2to1/3 1/3to1/2 1/2to1/1 1/1to2/1 2/1to3/1 3/1to4/1"/>
    <route id="route007" edges="2/3to2/4 2/4to2/3 2/3to1/3 1/3to0/3 0/3to0/4 0/4to0/3 0/3to0/2 0/2to0/1 0/1to0/2 0/2to0/3 0/3to0/2 0/2to1/2 1/2to2/2 2/2to3/2 3/2to4/2 4/2to3/2 3/2to2/2 2/2to2/1 2/1to2/0 2/0to2/1 2/1to2/2 2/2to2/3 2/3to2/4 2/4to3/4 3/4to2/4 2/4to1/4 1/4to1/3 1/3to0/3 0/3to0/2 0/2to0/1 0/1to1/1 1/1to0/1 0/1to0/2 0/2to0/3 0/3to0/4 0/4to0/3 0/3to0/2 0/2to0/1 0/1to1/1 1/1to1/0 1/0to2/0 2/0to1/0 1/0to1/1 1/1to0/1 0/1to0/2 0/2to0/3 0/3to0/4 0/4to0/3 0/3to0/2 0/2to0/1 0/1to1/1 1/1to2/1 2/1to2/2 2/2to1/2 1/2to1/1 1/1to1/0 1/0to1/1 1/1to1/2 1/2to1/3 1/3to1/4 1/4to2/4 2/4to3/4 3/4to4/4 4/4to3/4"/>
    <route id="route008" edges="4/3to3/3 3/3to2/3 2/3to1/3 1/3to0/3 0/3to0/2 0/2to0/1 0/1to0/0 0/0to0/1 0/1to0/2 0/2to0/3 0/3to1/3 1/3to2/3 2/3to3/3 3/3to4/3 4/3to4/4 4/4to3/4 3/4to2/4 2/4to2/3 2/3to2/2 2/2to2/1 2/1to2/2 2/2to2/3 2/3to3/3 3/3to4/3 4/3to4/4 4/4to3/4 3/4to2/4 2/4to2/3 2/3to2/2 2/2to1/2 1/2to1/3 1/3to2/3 2/3to3/3 3/3to3/2 3/2to3/3 3/3to2/3 2/3to1/3 1/3to0/3 0/3to0/4 0/4to0/3 0/3to1/3 1/3to2/3 2/3to1/3 1/3to0/3 0/3to0/2 0/2to0/1 0/1to0/2 0/2to0/3 0/3to1/3 1/3to2/3 2/3to2/2 2/2to2/1 2/1to3/1 3/1to4/1 4/1to4/0 4/0to3/0 3/0to3/1 3/1to3/2 3/2to3/3 3/3to2/3 2/3to1/3 1/3to0/3 0/3to0/4 0/4to0/3"/>
    <route id="route009" edges="0/3to0/2 0/2to0/1 0/1to1/1 1/1to2/1 2/1to3/1 3/1to3/2 3/2to2/2 2/2to1/2 1/2to0/2 0/2to0/1 0/1to0/0 0/0to1/0 1/0to1/1 1/1to1/2 1/2to1/3 1/3to2/3 2/3to3/3 3/3to4/3 4/3to4/2 4/2to3/2 3/2to3/1 3/1to3/0 3/0to2/0 2/0to1/0 1/0to1/1 1/1to1/2 1/2to1/3 1/3to1/4 1/4to0/4 0/4to0/3 0/3to0/2 0/2to0/1 0/1to1/1 1/1to1/0 1/0to2/0 2/0to2/1 2/1to1/1 1/1to0/1 0/1to0/2 0/2to0/3 0/3to1/3 1/3to2/3 2/3to2/2 2/2to2/1 2/1to2/0 2/0to3/0 3/0to2/0 2/0to1/0 1/0to1/1 1/1to0/1 0/1to1/1 1/1to1/2 1/2to1/3 1/3to2/3 2/3to3/3 3/3to3/2 3/2to3/3 3/3to3/4 3/4to2/4 2/4to2/3 2/3to2/2 2/2to2/1 2/1to3/1 3/1to4/1"/>
    <route id="route010" edges="1/0to0/0 0/0to0/1 0/1to0/2 0/2to0/3 0/3to1/3 1/3to1/2 1/2to1/3 1/3to1/4 1/4to1/3 1/3to0/3 0/3to0/4 0/4to0/3 0/3to1/3 1/3to2/3 2/3to3/3 3/3to2/3 2/3to2/2 2/2to3/2 3/2to3/3 3/3to2/3 2/3to1/3 1/3to1/2 1/2to1/1 1/1to1/0 1/0to1/1 1/1to1/0 1/0to0/0 0/0to0/1 0/1to0/2 0/2to1/2 1/2to1/3 1/3to1/2 1/2to2/2 2/2to3/2 3/2to3/1 3/1to3/0 3/0to3/1 3/1to3/2 3/2to2/2 2/2to1/2 1/2to1/3 1/3to1/4 1/4to1/3 1/3to1/2 1/2to1/1 1/1to2/1 2/1to2/2 2/2to3/2 3/2to2/2 2/2to3/2 3/2to4/2 4/2to4/1 4/1to4/0 4/0to4/1 4/1to4/2 4/2to4/3 4/3to4/4 4/4to4/3 4/3to3/3 3/3to3/2 3/2to3/1 3/1to3/0 3/0to3/1 3/1to3/0"/>
    <route id="route011" edges="0/2to0/1 0/1to1/1 1/1to2/1 2/1to3/1 3/1to2/1 2/1to1/1 1/1to0/1 0/1to0/0 0/0to1/0 1/0to1/1 1/1to2/1 2/1to2/0 2/0to2/1 2/1to2/2 2/2to3/2 3/2to4/2 4/2to4/1 4/1to4/2 4/2to4/3 4/3to4/4 4/4to3/4 3/4to2/4 2/4to2/3 2/3to2/2 2/2to2/1 2/1to3/1 3/1to4/1 4/1to3/1 3/1to2/1 2/1to1/1 1/1to0/1 0/1to0/2 0/2to0/3 0/3to0/4 0/4to0/3 0/3to0/2 0/2to0/1 0/1to1/1 1/1to1/0 1/0to2/0 2/0to2/1 2/1to2/2 2/2to2/3 2/3to2/4 2/4to1/4 1/4to1/3 1/3to1/2 1/2to2/2 2/2to3/2 3/2to4/2 4/2to3/2 3/2to3/1 3/1to3/0 3/0to3/1 3/1to2/1 2/1to2/2 2/2to2/3 2/3to1/3 1/3to1/2 1/2to1/1 1/1to1/0 1/0to2/0 2/0to1/0 1/0to1/1"/>
    <route id="route012" edges="3/0to2/0 2/0to1/0 1/0to1/1 1/1to1/2 1/2to1/3 1/3to1/2 1/2to2/2 2/2to3/2 3/2to4/2 4/2to4/1 4/1to4/2 4/2to3/2 3/2to3/1 3/1to2/1 2/1to1/1 1/1to0/1 0/1to0/2 0/2to0/3 0/3to0/2 0/2to0/3 0/3to1/3 1/3to2/3 2/3to1/3 1/3to0/3 0/3to0/4 0/4to1/4 1/4to1/3 1/3to1/2 1/2to1/1 1/1to1/2 1/2to1/3 1/3to2/3 2/3to3/3 3/3to2/3 2/3to2/4 2/4to3/4 3/4to4/4 4/4to4/3 4/3to3/3 3/3to2/3 2/3to1/3 1/3to0/3 0/3to0/2 0/2to0/1 0/1to0/0 0/0to1/0 1/0to1/1 1/1to2/1 2/1to2/0 2/0to1/0 1/0to1/1 1/1to0/1 0/1to0/2 0/2to0/3 0/3to1/3 1/3to1/4 1/4to2/4 2/4to3/4 3/4to3/3 3/3to3/2 3/2to4/2 4/2to4/1 4/1to3/1 3/1to2/1"/>
    <route id="route013" edges="3/4to2/4 2/4to2/3 2/3to3/3 3/3to3/4 3/4to4/4 4/4to4/3 4/3to3/3 3/3to2/3 2/3to1/3 1/3to1/2 1/2to0/2 0/2to1/2 1/2to1/3 1/3to2/3 2/3to1/3 1/3to1/2 1/2to2/2 2/2to2/3 2/3to2/4 2/4to3/4 3/4to2/4 2/4to1/4 1/4to1/3 1/3to1/2 1/2to1/1 1/1to0/1 0/1to0/2 0/2to0/3 0/3to1/3 1/3to2/3 2/3to1/3 1/3to0/3 0/3to0/2 0/2to0/1 0/1to1/1 1/1to2/1 2/1to2/2 2/2to2/3 2/3to2/4 2/4to3/4 3/4to2/4 2/4to2/3 2/3to2/2 2/2to2/1 2/1to3/1 3/1to4/1 4/1to4/0 4/0to3/0 3/0to2/0 2/0to1/0 1/0to1/1 1/1to0/1 0/1to0/2 0/2to0/3 0/3to0/2 0/2to1/2 1/2to2/2 2/2to3/2 3/2to3/3 3/3to3/2 3/2to3/1 3/1to2/1 2/1to2/2 2/2to2/3"/>
    <route id="route014" edges="1/3to0/3 0/3to0/2 0/2to1/2 1/2to2/2 2/2to1/2 1/2to1/3 1/3to2/3 2/3to2/4 2/4to1/4 1/4to1/3 1/3to1/4 1/4to1/3 1/3to2/3 2/3to3/3 3/3to3/2 3/2to2/2 2/2to3/2 3/2to2/2 2/2to2/3 2/3to1/3 1/3to0/3 0/3to0/4 0/4to1/4 1/4to0/4 0/4to0/3 0/3to1/3 1/3to0/3 0/3to1/3 1/3to2/3 2/3to3/3 3/3to2/3 2/3to1/3 1/3to1/2 1/2to1/1 1/1to0/1 0/1to0/2 0/2to1/2 1/2to2/2 2/2to1/2 1/2to1/1 1/1to1/2 1/2to2/2 2/2to3/2 3/2to4/2 4/2to4/3 4/3to3/3 3/3to3/2 3/2to3/3 3/3to2/3 2/3to2/2 2/2to2/1 2/1to1/1 1/1to1/2 1/2to1/3 1/3to2/3 2/3to3/3 3/3to2/3 2/3to3/3 3/3to4/3 4/3to3/3 3/3to2/3 2/3to1/3 1/3to1/2 1/2to1/1"/>
    <route id="route015" edges="2/4to1/4 1/4to1/3 1/3to1/2 1/2to1/1 1/1to1/0 1/0to2/0 2/0to3/0 3/0to4/0 4/0to4/1 4/1to3/1 3/1to2/1 2/1to1/1 1/1to1/0 1/0to1/1 1/1to0/1 0/1to0/0 0/0to0/1 0/1to0/2 0/2to0/3 0/3to1/3 1/3to2/3 2/3to2/4 2/4to1/4 1/4to2/4 2/4to3/4 3/4to2/4 2/4to2/3 2/3to1/3 1/3to1/2 1/2to1/1 1/1to1/0 1/0to2/0 2/0to3/0 3/0to2/0 2/0to2/1 2/1to2/2 2/2to2/1 2/1to2/2 2/2to2/3 2/3to2/4 2/4to3/4 3/4to4/4 4/4to3/4 3/4to2/4 2/4to1/4 1/4to0/4 0/4to0/3 0/3to1/3 1/3to1/4 1/4to2/4 2/4to1/4 1/4to1/3 1/3to2/3 2/3to3/3 3/3to4/3 4/3to4/4 4/4to3/4 3/4to2/4 2/4to1/4 1/4to1/3 1/3to2/3 2/3to3/3 3/3to4/3 4/3to3/3"/>
    <route id="route016" edges="0/2to0/1 0/1to1/1 1/1to1/0 1/0to2/0 2/0to3/0 3/0to4/0 4/0to4/1 4/1to4/2 4/2to4/3 4/3to4/4 4/4to4/3 4/3to3/3 3/3to2/3 2/3to2/2 2/2to2/3 2/3to2/2 2/2to3/2 3/2to4/2 4/2to4/1 4/1to3/1 3/1to3/0 3/0to2/0 2/0to1/0 1/0to1/1 1/1to1/2 1/2to0/2 0/2to0/1 0/1to1/1 1/1to1/0 1/0to2/0 2/0to1/0 1/0to1/1 1/1to1/2 1/2to1/3 1/3to1/4 1/4to2/4 2/4to3/4 3/4to2/4 2/4to2/3 2/3to1/3 1/3to1/2 1/2to1/1 1/1to1/0 1/0to1/1 1/1to1/2 1/2to1/3 1/3to1/4 1/4to2/4 2/4to3/4 3/4to2/4 2/4to1/4 1/4to1/3 1/3to0/3 0/3to0/2 0/2to1/2 1/2to2/2 2/2to2/3 2/3to1/3 1/3to1/2 1/2to1/1 1/1to1/0 1/0to2/0 2/0to3/0 3/0to4/0"/>
    <route id="route017" edges="1/4to1/3 1/3to1/2 1/2to1/1 1/1to2/1 2/1to3/1 3/1to2/1 2/1to1/1 1/1to0/1 0/1to0/0 0/0to0/1 0/1to1/1 1/1to2/1 2/1to2/0 2/0to2/1 2/1to2/2 2/2to3/2 3/2to4/2 4/2to3/2 3/2to2/2 2/2to1/2 1/2to0/2 0/2to0/1 0/1to0/0 0/0to0/1 0/1to0/2 0/2to0/3 0/3to1/3 1/3to1/2 1/2to1/1 1/1to1/0 1/0to2/0 2/0to3/0 3/0to3/1 3/1to3/2 3/2to3/3 3/3to4/3 4/3to4/2 4/2to3/2 3/2to2/2 2/2to2/1 2/1to2/0 2/0to3/0 3/0to2/0 2/0to1/0 1/0to0/0 0/0to0/1 0/1to0/2 0/2to0/3 0/3to1/3 1/3to2/3 2/3to3/3 3/3to4/3 4/3to4/2 4/2to3/2 3/2to2/2 2/2to2/1 2/1to2/0 2/0to2/1 2/1to1/1 1/1to0/1 0/1to0/2 0/2to0/3 0/3to0/4 0/4to0/3"/>
    <route id="route018" edges="2/0to1/0 1/0to1/1 1/1to1/2 1/2to2/2 2/2to3/2 3/2to4/2 4/2to3/2 3/2to2/2 2/2to1/2 1/2to1/3 1/3to1/2 1/2to1/1 1/1to1/0 1/0to0/0 0/0to0/1 0/1to1/1 1/1to2/1 2/1to3/1 3/1to3/0 3/0to2/0 2/0to1/0 1/0to1/1 1/1to1/2 1/2to1/3 1/3to1/4 1/4to1/3 1/3to1/2 1/2to1/1 1/1to1/0 1/0to0/0 0/0to1/0 1/0to2/0 2/0to2/1 2/1to1/1 1/1to1/2 1/2to1/3 1/3to1/4 1/4to2/4 2/4to2/3 2/3to2/2 2/2to2/1 2/1to1/1 1/1to1/2 1/2to1/3 1/3to2/3 2/3to2/4 2/4to3/4 3/4to2/4 2/4to2/3 2/3to2/2 2/2to2/1 2/1to1/1 1/1to0/1 0/1to0/2 0/2to0/3 0/3to1/3 1/3to1/4 1/4to2/4 2/4to3/4 3/4to4/4 4/4to4/3 4/3to3/3 3/3to2/3 2/3to1/3"/>
    <route id="route019" edges="2/2to1/2 1/2to0/2 0/2to0/3 0/3to0/4 0/4to0/3 0/3to0/2 0/2to0/1 0/1to1/1 1/1to2/1 2/1to1/1 1/1to1/0 1/0to2/0 2/0to1/0 1/0to0/0 0/0to1/0 1/0to2/0 2/0to1/0 1/0to2/0 2/0to3/0 3/0to2/0 2/0to1/0 1/0to1/1 1/1to0/1 0/1to0/0 0/0to1/0 1/0to2/0 2/0to1/0 1/0to1/1 1/1to1/2 1/2to1/3 1/3to2/3 2/3to3/3 3/3to4/3 4/3to4/2 4/2to3/2 3/2to2/2 2/2to1/2 1/2to0/2 0/2to0/3 0/3to1/3 1/3to2/3 2/3to1/3 1/3to1/2 1/2to1/1 1/1to1/0 1/0to2/0 2/0to3/0 3/0to2/0 2/0to1/0 1/0to0/0 0/0to0/1 0/1to0/2 0/2to0/3 0/3to1/3 1/3to2/3 2/3to3/3 3/3to2/3 2/3to1/3 1/3to1/2 1/2to1/1 1/1to1/0 1/0to0/0 0/0to0/1 0/1to0/2"/>
    <route id="route020" edges="3/3to3/2 3/2to4/2 4/2to4/3 4/3to3/3 3/3to2/3 2/3to2/2 2/2to2/1 2/1to2/0 2/0to3/0 3/0to3/1 3/1to3/2 3/2to3/3 3/3to3/4 3/4to4/4 4/4to4/3 4/3to3/3 3/3to2/3 2/3to1/3 1/3to2/3 2/3to3/3 3/3to4/3 4/3to3/3 3/3to2/3 2/3to1/3 1/3to0/3 0/3to0/2 0/2to0/1 0/1to0/2 0/2to0/1 0/1to1/1 1/1to2/1 2/1to3/1 3/1to3/0 3/0to2/0 2/0to2/1 2/1to2/2 2/2to1/2 1/2to0/2 0/2to0/1 0/1to1/1 1/1to1/0 1/0to2/0 2/0to3/0 3/0to4/0 4/0to3/0 3/0to2/0 2/0to1/0 1/0to1/1 1/1to0/1 0/1to0/2 0/2to0/3 0/3to0/4 0/4to1/4 1/4to1/3 1/3to1/2 1/2to1/1 1/1to1/0 1/0to1/1 1/1to1/0 1/0to2/0 2/0to1/0 1/0to1/1 1/1to2/1 2/1to2/0"/>
    <route id="route021" edges="0/3to1/3 1/3to0/3 0/3to0/2 0/2to0/1 0/1to1/1 1/1to2/1 2/1to1/1 1/1to2/1"/>
    <route id="route022" edges="3/1to2/1 2/1to1/1 1/1to1/2 1/2to1/3 1/3to1/4 1/4to0/4 0/4to0/3 0/3to0/2"/>
    <route id="route023" edges="2/0to2/1 2/1to1/1 1/1to0/1 0/1to0/0 0/0to1/0 1/0to1/1 1/1to1/2 1/2to1/3"/>
    <route id="route024" edges="0/1to1/1 1/1to1/2 1/2to1/3 1/3to2/3 2/3to3/3 3/3to4/3 4/3to4/4 4/4to3/4"/>
    <route id="route025" edges="4/4to4/3 4/3to3/3 3/3to3/2 3/2to2/2 2/2to2/3 2/3to2/4 2/4to1/4 1/4to1/3"/>
    <route id="route026" edges="2/1to1/1 1/1to0/1 0/1to0/2 0/2to0/3 0/3to0/4 0/4to1/4 1/4to1/3 1/3to1/2"/>
    <route id="route027" edges="4/1to4/0 4/0to3/0 3/0to2/0 2/0to1/0 1/0to1/1 1/1to1/2 1/2to1/3 1/3to1/4"/>
    <route id="route028" edges="2/3to2/2 2/2to1/2 1/2to0/2 0/2to0/1 0/1to1/1 1/1to2/1 2/1to3/1 3/1to3/2"/>
    <route id="route029" edges="3/1to2/1 2/1to1/1 1/1to0/1 0/1to0/2 0/2to0/3 0/3to0/4 0/4to1/4 1/4to1/3"/>
    <route id="route030" edges="1/0to0/0 0/0to0/1 0/1to0/2 0/2to1/2 1/2to2/2 2/2to3/2 3/2to4/2 4/2to4/3"/>
    <route id="route031" edges="3/4to3/3 3/3to3/2 3/2to3/1 3/1to2/1 2/1to1/1 1/1to0/1 0/1to0/2 0/2to0/3"/>
    <route id="route032" edges="2/3to2/2 2/2to2/1 2/1to2/0 2/0to1/0 1/0to1/1 1/1to2/1 2/1to3/1 3/1to4/1"/>
    <route id="route033" edges="4/3to3/3 3/3to2/3 2/3to1/3 1/3to0/3 0/3to0/2 0/2to0/1 0/1to0/0 0/0to1/0"/>
    <route id="route034" edges="4/0to4/1 4/1to3/1 3/1to2/1 2/1to2/2 2/2to1/2 1/2to1/1 1/1to2/1 2/1to2/0"/>
    <route id="route035" edges="0/0to0/1 0/1to1/1 1/1to1/0 1/0to2/0 2/0to3/0 3/0to4/0 4/0to4/1 4/1to3/1"/>
    <route id="route036" edges="4/4to3/4 3/4to2/4 2/4to1/4 1/4to1/3 1/3to0/3 0/3to0/2 0/2to0/1 0/1to1/1"/>
    <route id="route037" edges="2/4to1/4 1/4to1/3 1/3to1/2 1/2to2/2 2/2to3/2 3/2to3/1 3/1to2/1 2/1to1/1"/>
    <route id="route038" edges="1/4to0/4 0/4to0/3 0/3to0/2 0/2to1/2 1/2to1/1 1/1to1/0 1/0to2/0 2/0to2/1"/>
    <route id="route039" edges="4/4to4/3 4/3to4/2 4/2to4/1 4/1to4/0 4/0to3/0 3/0to2/0 2/0to2/1 2/1to1/1"/>
    <route id="route040" edges="2/2to2/1 2/1to1/1 1/1to0/1 0/1to0/2 0/2to0/3 0/3to1/3 1/3to1/4 1/4to0/4"/>
    <route id="route041" edges="1/0to1/1 1/1to1/2 1/2to1/3 1/3to1/4 1/4to2/4 2/4to3/4 3/4to4/4 4/4to4/3"/>
    <route id="route042" edges="2/4to1/4 1/4to1/3 1/3to2/3 2/3to2/4 2/4to1/4 1/4to1/3 1/3to1/2 1/2to2/2"/>
    <route id="route043" edges="1/1to2/1 2/1to2/2 2/2to2/3 2/3to3/3 3/3to4/3 4/3to4/2 4/2to3/2 3/2to2/2"/>
    <route id="route044" edges="2/3to2/2 2/2to1/2 1/2to1/3 1/3to2/3 2/3to3/3 3/3to4/3 4/3to4/2 4/2to3/2"/>
    <route id="route045" edges="3/4to2/4 2/4to1/4 1/4to1/3 1/3to0/3 0/3to0/2 0/2to0/1 0/1to1/1 1/1to1/0"/>
    <route id="route046" edges="2/0to2/1 2/1to2/2 2/2to3/2 3/2to4/2 4/2to4/1 4/1to3/1 3/1to2/1 2/1to1/1"/>
    <route id="route047" edges="3/2to3/1 3/1to2/1 2/1to1/1 1/1to1/0 1/0to0/0 0/0to0/1 0/1to0/2 0/2to1/2"/>
    <route id="route048" edges="1/0to0/0 0/0to0/1 0/1to1/1 1/1to2/1 2/1to3/1 3/1to3/0 3/0to2/0 2/0to2/1"/>
    <route id="route049" edges="0/4to0/3 0/3to1/3 1/3to1/4 1/4to2/4 2/4to2/3 2/3to2/2 2/2to2/1 2/1to3/1"/>
    <route id="route050" edges="3/0to3/1 3/1to2/1 2/1to1/1 1/1to0/1 0/1to0/0 0/0to1/0 1/0to1/1 1/1to1/2"/>
    <route id="route051" edges="4/1to4/2 4/2to3/2 3/2to2/2 2/2to2/1 2/1to2/0 2/0to1/0 1/0to0/0 0/0to0/1"/>
    <route id="route052" edges="3/1to3/0 3/0to4/0 4/0to4/1 4/1to3/1 3/1to2/1 2/1to1/1 1/1to0/1 0/1to0/2"/>
    <route id="route053" edges="0/4to1/4 1/4to1/3 1/3to1/2 1/2to1/1 1/1to0/1 0/1to0/2 0/2to0/3 0/3to1/3"/>
    <route id="route054" edges="1/2to1/3 1/3to2/3 2/3to3/3 3/3to4/3 4/3to4/4 4/4to3/4 3/4to2/4 2/4to1/4"/>
    <route id="route055" edges="0/4to1/4 1/4to1/3 1/3to1/2 1/2to2/2 2/2to3/2 3/2to4/2 4/2to4/3 4/3to3/3"/>
    <route id="route056" edges="4/3to4/4 4/4to3/4 3/4to3/3 3/3to3/2 3/2to3/1 3/1to2/1 2/1to1/1 1/1to0/1"/>
    <route id="route057" edges="3/1to3/2 3/2to2/2 2/2to1/2 1/2to1/3 1/3to1/4 1/4to0/4 0/4to0/3 0/3to1/3"/>
    <route id="route058" edges="3/0to2/0 2/0to2/1 2/1to2/2 2/2to2/3 2/3to3/3 3/3to3/2 3/2to3/1 3/1to2/1"/>
    <route id="route059" edges="4/1to4/0 4/0to3/0 3/0to3/1 3/1to3/2 3/2to3/3 3/3to3/4 3/4to2/4 2/4to2/3"/>
    <route id="route060" edges="4/1to3/1 3/1to2/1 2/1to1/1 1/1to0/1 0/1to0/2 0/2to0/3 0/3to1/3 1/3to1/2"/>
    <route id="route061" edges="3/4to3/3 3/3to2/3 2/3to1/3 1/3to1/2 1/2to0/2 0/2to0/1 0/1to1/1 1/1to1/0"/>
    <route id="route062" edges="1/2to1/3 1/3to1/4 1/4to2/4 2/4to3/4 3/4to3/3 3/3to2/3 2/3to1/3 1/3to1/2"/>
    <route id="route063" edges="2/1to1/1 1/1to1/2 1/2to2/2 2/2to3/2 3/2to4/2 4/2to4/1 4/1to3/1 3/1to3/0"/>
    <route id="route064" edges="0/4to1/4 1/4to1/3 1/3to1/2 1/2to1/1 1/1to1/0 1/0to2/0 2/0to3/0 3/0to4/0"/>
    <route id="route065" edges="0/0to1/0 1/0to1/1 1/1to1/2 1/2to1/3 1/3to1/4 1/4to0/4 0/4to0/3 0/3to0/2"/>
    <route id="route066" edges="1/4to2/4 2/4to2/3 2/3to2/2 2/2to3/2 3/2to4/2 4/2to4/3 4/3to3/3 3/3to2/3"/>
    <route id="route067" edges="2/1to1/1 1/1to1/2 1/2to2/2 2/2to3/2 3/2to4/2 4/2to4/3 4/3to3/3 3/3to2/3"/>
    <route id="route068" edges="1/3to2/3 2/3to3/3 3/3to4/3 4/3to4/2 4/2to3/2 3/2to2/2 2/2to1/2 1/2to1/1"/>
    <route id="route069" edges="1/3to0/3 0/3to0/2 0/2to0/1 0/1to1/1 1/1to1/0 1/0to2/0 2/0to3/0 3/0to4/0"/>
    <route id="route070" edges="2/4to1/4 1/4to1/3 1/3to1/2 1/2to1/1 1/1to1/0 1/0to2/0 2/0to3/0 3/0to3/1"/>
    <route id="route071" edges="0/1to1/1 1/1to1/2 1/2to1/3 1/3to2/3 2/3to3/3 3/3to4/3 4/3to4/2 4/2to3/2"/>
    <route id="route072" edges="4/4to4/3 4/3to3/3 3/3to2/3 2/3to1/3 1/3to0/3 0/3to0/2 0/2to0/1 0/1to1/1"/>
    <route id="route073" edges="0/4to1/4 1/4to1/3 1/3to1/2 1/2to2/2 2/2to2/1 2/1to3/1 3/1to4/1 4/1to4/2"/>
    <route id="route074" edges="1/0to2/0 2/0to2/1 2/1to2/2 2/2to2/3 2/3to3/3 3/3to3/2 3/2to2/2 2/2to1/2"/>
    <route id="route075" edges="0/1to1/1 1/1to1/2 1/2to1/3 1/3to2/3 2/3to3/3 3/3to4/3 4/3to4/2 4/2to3/2"/>
    <route id="route076" edges="2/1to2/2 2/2to1/2 1/2to1/3 1/3to0/3 0/3to0/2 0/2to0/1 0/1to0/0 0/0to1/0"/>
    <route id="route077" edges="0/4to0/3 0/3to1/3 1/3to1/4 1/4to2/4 2/4to2/3 2/3to2/2 2/2to2/1 2/1to3/1"/>
    <route id="route078" edges="2/3to2/2 2/2to2/1 2/1to2/0 2/0to3/0 3/0to4/0 4/0to4/1 4/1to3/1 3/1to2/1"/>
    <route id="route079" edges="3/1to3/0 3/0to2/0 2/0to1/0 1/0to1/1 1/1to0/1 0/1to0/2 0/2to1/2 1/2to2/2"/>
    <route id="route080" edges="2/1to1/1 1/1to1/2 1/2to1/3 1/3to2/3 2/3to3/3 3/3to4/3 4/3to4/2 4/2to4/1"/>
    <route id="route081" edges="1/1to2/1 2/1to3/1 3/1to3/2 3/2to3/3 3/3to3/4 3/4to4/4 4/4to4/3 4/3to4/2"/>
    <route id="route082" edges="1/3to1/2 1/2to0/2 0/2to0/3 0/3to1/3 1/3to1/2 1/2to1/1 1/1to0/1 0/1to0/2"/>
    <route id="route083" edges="4/2to4/1 4/1to3/1 3/1to2/1 2/1to1/1 1/1to1/2 1/2to1/3 1/3to1/4 1/4to2/4"/>
    <route id="route084" edges="3/3to2/3 2/3to2/2 2/2to2/1 2/1to3/1 3/1to4/1 4/1to4/0 4/0to3/0 3/0to2/0"/>
    <route id="route085" edges="4/0to4/1 4/1to3/1 3/1to2/1 2/1to2/2 2/2to2/3 2/3to2/4 2/4to1/4 1/4to1/3"/>
    <route id="route086" edges="3/0to3/1 3/1to3/2 3/2to3/3 3/3to2/3 2/3to1/3 1/3to1/2 1/2to1/1 1/1to1/0"/>
    <route id="route087" edges="3/2to2/2 2/2to2/1 2/1to3/1 3/1to4/1 4/1to4/2 4/2to3/2 3/2to2/2 2/2to1/2"/>
    <route id="route088" edges="1/4to0/4 0/4to0/3 0/3to0/2 0/2to0/1 0/1to1/1 1/1to1/0 1/0to2/0 2/0to3/0"/>
    <route id="route089" edges="4/3to4/4 4/4to3/4 3/4to2/4 2/4to2/3 2/3to3/3 3/3to3/2 3/2to2/2 2/2to2/1"/>
    <route id="route090" edges="2/4to2/3 2/3to3/3 3/3to3/2 3/2to3/1 3/1to4/1 4/1to4/0 4/0to3/0 3/0to2/0"/>
    <route id="route091" edges="4/4to4/3 4/3to3/3 3/3to2/3 2/3to1/3 1/3to0/3 0/3to0/2 0/2to0/1 0/1to0/0"/>
    <route id="route092" edges="0/1to0/2 0/2to0/3 0/3to1/3 1/3to1/4 1/4to2/4 2/4to3/4 3/4to4/4 4/4to4/3"/>
    <route id="route093" edges="3/0to2/0 2/0to2/1 2/1to2/2 2/2to3/2 3/2to4/2 4/2to4/1 4/1to3/1 3/1to2/1"/>
    <route id="route094" edges="4/2to3/2 3/2to2/2 2/2to2/3 2/3to3/3 3/3to3/2 3/2to3/1 3/1to3/0 3/0to2/0"/>
    <route id="route095" edges="1/4to1/3 1/3to1/2 1/2to1/1 1/1to2/1 2/1to3/1 3/1to4/1 4/1to4/0 4/0to3/0"/>
    <route id="route096" edges="1/1to1/2 1/2to2/2 2/2to3/2 3/2to4/2 4/2to4/3 4/3to3/3 3/3to2/3 2/3to2/4"/>
    <route id="route097" edges="1/3to1/2 1/2to0/2 0/2to0/1 0/1to1/1 1/1to1/2 1/2to1/3 1/3to1/4 1/4to2/4"/>
    <route id="route098" edges="0/3to0/2 0/2to0/1 0/1to1/1 1/1to1/0 1/0to2/0 2/0to3/0 3/0to4/0 4/0to4/1"/>
    <route id="route099" edges="3/3to3/4 3/4to2/4 2/4to1/4 1/4to1/3 1/3to1/2 1/2to1/1 1/1to2/1 2/1to3/1"/>
    <route id="route100" edges="1/4to1/3 1/3to1/2 1/2to1/1 1/1to2/1 2/1to3/1 3/1to4/1 4/1to4/0 4/0to3/0"/>

    <!-- T => Taxi -->
    <vType id="T" accel="3" decel="5" sigma="0.5" length="2.5" minGap="2.5" maxSpeed="15" color="1,1,0"/>

        <vehicle depart="0" departPos="0" arrivalPos="max" departSpeed="0" id="veh001" route="route001" type="T"/>
        <vehicle depart="0" departPos="0" arrivalPos="max" departSpeed="0" id="veh002" route="route002" type="T"/>
        <vehicle depart="0" departPos="0" arrivalPos="max" departSpeed="0" id="veh003" route="route003" type="T"/>
        <vehicle depart="0" departPos="0" arrivalPos="max" departSpeed="0" id="veh004" route="route004" type="T"/>
        <vehicle depart="0" departPos="0" arrivalPos="max" departSpeed="0" id="veh005" route="route005" type="T"/>
        <vehicle depart="0" departPos="0" arrivalPos="max" departSpeed="0" id="veh006" route="route006" type="T"/>
        <vehicle depart="0" departPos="0" arrivalPos="max" departSpeed="0" id="veh007" route="route007" type="T"/>
        <vehicle depart="0" departPos="0" arrivalPos="max" departSpeed="0" id="veh008" route="route008" type="T"/>
        <vehicle depart="0" departPos="0" arrivalPos="max" departSpeed="0" id="veh009" route="route009" type="T"/>
        <vehicle depart="0" departPos="0" arrivalPos="max" departSpeed="0" id="veh010" route="route010" type="T"/>
        <vehicle depart="0" departPos="0" arrivalPos="max" departSpeed="0" id="veh011" route="route011" type="T"/>
        <vehicle depart="0" departPos="0" arrivalPos="max" departSpeed="0" id="veh012" route="route012" type="T"/>
        <vehicle depart="0" departPos="0" arrivalPos="max" departSpeed="0" id="veh013" route="route013" type="T"/>
        <vehicle depart="0" departPos="0" arrivalPos="max" departSpeed="0" id="veh014" route="route014" type="T"/>
        <vehicle depart="0" departPos="0" arrivalPos="max" departSpeed="0" id="veh015" route="route015" type="T"/>
        <vehicle depart="0" departPos="0" arrivalPos="max" departSpeed="0" id="veh016" route="route016" type="T"/>
        <vehicle depart="0" departPos="0" arrivalPos="max" departSpeed="0" id="veh017" route="route017" type="T"/>
        <vehicle depart="0" departPos="0" arrivalPos="max" departSpeed="0" id="veh018" route="route018" type="T"/>
        <vehicle depart="0" departPos="0" arrivalPos="max" departSpeed="0" id="veh019" route="route019" type="T"/>
        <vehicle depart="0" departPos="0" arrivalPos="max" departSpeed="0" id="veh020" route="route020" type="T"/>

    <!-- P => Carro de Passeio -->
    <vType id="P" accel="3" decel="5" sigma="0.5" length="2.5" minGap="2.5" maxSpeed="15" color="0,1,0"/>

    <!-- http://sumo.dlr.de/wiki/Definition_of_Vehicles,_Vehicle_Types,_and_Routes -->
        <vehicle depart="0" departPos="0" arrivalPos="max" departSpeed="0" id="veh021" route="route021" type="P"/>
        <vehicle depart="0" departPos="0" arrivalPos="max" departSpeed="0" id="veh022" route="route022" type="P"/>
        <vehicle depart="0" departPos="0" arrivalPos="max" departSpeed="0" id="veh023" route="route023" type="P"/>
        <vehicle depart="0" departPos="0" arrivalPos="max" departSpeed="0" id="veh024" route="route024" type="P"/>
        <vehicle depart="0" departPos="0" arrivalPos="max" departSpeed="0" id="veh025" route="route025" type="P"/>
        <vehicle depart="0" departPos="0" arrivalPos="max" departSpeed="0" id="veh026" route="route026" type="P"/>
        <vehicle depart="0" departPos="0" arrivalPos="max" departSpeed="0" id="veh027" route="route027" type="P"/>
        <vehicle depart="0" departPos="0" arrivalPos="max" departSpeed="0" id="veh028" route="route028" type="P"/>
        <vehicle depart="0" departPos="0" arrivalPos="max" departSpeed="0" id="veh029" route="route029" type="P"/>
        <vehicle depart="0" departPos="0" arrivalPos="max" departSpeed="0" id="veh030" route="route030" type="P"/>
        <vehicle depart="60" departPos="0" arrivalPos="max" departSpeed="0" id="veh031" route="route031" type="P"/>
        <vehicle depart="60" departPos="0" arrivalPos="max" departSpeed="0" id="veh032" route="route032" type="P"/>
        <vehicle depart="60" departPos="0" arrivalPos="max" departSpeed="0" id="veh033" route="route033" type="P"/>
        <vehicle depart="60" departPos="0" arrivalPos="max" departSpeed="0" id="veh034" route="route034" type="P"/>
        <vehicle depart="60" departPos="0" arrivalPos="max" departSpeed="0" id="veh035" route="route035" type="P"/>
        <vehicle depart="60" departPos="0" arrivalPos="max" departSpeed="0" id="veh036" route="route036" type="P"/>
        <vehicle depart="60" departPos="0" arrivalPos="max" departSpeed="0" id="veh037" route="route037" type="P"/>
        <vehicle depart="60" departPos="0" arrivalPos="max" departSpeed="0" id="veh038" route="route038" type="P"/>
        <vehicle depart="60" departPos="0" arrivalPos="max" departSpeed="0" id="veh039" route="route039" type="P"/>
        <vehicle depart="60" departPos="0" arrivalPos="max" departSpeed="0" id="veh040" route="route040" type="P"/>
        <vehicle depart="120" departPos="0" arrivalPos="max" departSpeed="0" id="veh041" route="route041" type="P"/>
        <vehicle depart="120" departPos="0" arrivalPos="max" departSpeed="0" id="veh042" route="route042" type="P"/>
        <vehicle depart="120" departPos="0" arrivalPos="max" departSpeed="0" id="veh043" route="route043" type="P"/>
        <vehicle depart="120" departPos="0" arrivalPos="max" departSpeed="0" id="veh044" route="route044" type="P"/>
        <vehicle depart="120" departPos="0" arrivalPos="max" departSpeed="0" id="veh045" route="route045" type="P"/>
        <vehicle depart="120" departPos="0" arrivalPos="max" departSpeed="0" id="veh046" route="route046" type="P"/>
        <vehicle depart="120" departPos="0" arrivalPos="max" departSpeed="0" id="veh047" route="route047" type="P"/>
        <vehicle depart="120" departPos="0" arrivalPos="max" departSpeed="0" id="veh048" route="route048" type="P"/>
        <vehicle depart="120" departPos="0" arrivalPos="max" departSpeed="0" id="veh049" route="route049" type="P"/>
        <vehicle depart="120" departPos="0" arrivalPos="max" departSpeed="0" id="veh050" route="route050" type="P"/>
        <vehicle depart="180" departPos="0" arrivalPos="max" departSpeed="0" id="veh051" route="route051" type="P"/>
        <vehicle depart="180" departPos="0" arrivalPos="max" departSpeed="0" id="veh052" route="route052" type="P"/>
        <vehicle depart="180" departPos="0" arrivalPos="max" departSpeed="0" id="veh053" route="route053" type="P"/>
        <vehicle depart="180" departPos="0" arrivalPos="max" departSpeed="0" id="veh054" route="route054" type="P"/>
        <vehicle depart="180" departPos="0" arrivalPos="max" departSpeed="0" id="veh055" route="route055" type="P"/>
        <vehicle depart="180" departPos="0" arrivalPos="max" departSpeed="0" id="veh056" route="route056" type="P"/>
        <vehicle depart="180" departPos="0" arrivalPos="max" departSpeed="0" id="veh057" route="route057" type="P"/>
        <vehicle depart="180" departPos="0" arrivalPos="max" departSpeed="0" id="veh058" route="route058" type="P"/>
        <vehicle depart="180" departPos="0" arrivalPos="max" departSpeed="0" id="veh059" route="route059" type="P"/>
        <vehicle depart="180" departPos="0" arrivalPos="max" departSpeed="0" id="veh060" route="route060" type="P"/>
        <vehicle depart="240" departPos="0" arrivalPos="max" departSpeed="0" id="veh061" route="route061" type="P"/>
        <vehicle depart="240" departPos="0" arrivalPos="max" departSpeed="0" id="veh062" route="route062" type="P"/>
        <vehicle depart="240" departPos="0" arrivalPos="max" departSpeed="0" id="veh063" route="route063" type="P"/>
        <vehicle depart="240" departPos="0" arrivalPos="max" departSpeed="0" id="veh064" route="route064" type="P"/>
        <vehicle depart="240" departPos="0" arrivalPos="max" departSpeed="0" id="veh065" route="route065" type="P"/>
        <vehicle depart="240" departPos="0" arrivalPos="max" departSpeed="0" id="veh066" route="route066" type="P"/>
        <vehicle depart="240" departPos="0" arrivalPos="max" departSpeed="0" id="veh067" route="route067" type="P"/>
        <vehicle depart="240" departPos="0" arrivalPos="max" departSpeed="0" id="veh068" route="route068" type="P"/>
        <vehicle depart="240" departPos="0" arrivalPos="max" departSpeed="0" id="veh069" route="route069" type="P"/>
        <vehicle depart="240" departPos="0" arrivalPos="max" departSpeed="0" id="veh070" route="route070" type="P"/>
        <vehicle depart="300" departPos="0" arrivalPos="max" departSpeed="0" id="veh071" route="route071" type="P"/>
        <vehicle depart="300" departPos="0" arrivalPos="max" departSpeed="0" id="veh072" route="route072" type="P"/>
        <vehicle depart="300" departPos="0" arrivalPos="max" departSpeed="0" id="veh073" route="route073" type="P"/>
        <vehicle depart="300" departPos="0" arrivalPos="max" departSpeed="0" id="veh074" route="route074" type="P"/>
        <vehicle depart="300" departPos="0" arrivalPos="max" departSpeed="0" id="veh075" route="route075" type="P"/>
        <vehicle depart="300" departPos="0" arrivalPos="max" departSpeed="0" id="veh076" route="route076" type="P"/>