<?xml version="1.0" encoding="iso-8859-1"?>

<!-- generated on Wed Nov 30 12:18:34 2011 by SUMO polyconvert Version 0.13.1
<?xml version="1.0" encoding="iso-8859-1"?>

<configuration xmlns:xsi="http://www.w3.org/2001/XMLSchema-instance" xsi:noNamespaceSchemaLocation="http://sumo.sf.net/xsd/polyconvertConfiguration.xsd">

    <input>
        <osm-files value="erlangen.osm"/>
        <osm.keep-full-type value="false"/>
        <type-file value="erlangen.polytypes.xml"/>
    </input>

    <output>
        <output-file value="erlangen.poly.xml"/>
    </output>

    <projection>
        <proj.utm value="true"/>
    </projection>

</configuration>
-->

<shapes>
     <!-- <poly id="2" type="building" color="1.00,0.00,0.00" fill="1" layer="4" shape="240,930 260,930 260,920 240,920 240,930"/> -->
     <poly id="3" type="building" color="1.00,0.00,0.00" fill="1" layer="1" shape="20,100 40,100 40,80 20,80 20,100"/>
     <poly id="4" type="building" color="1.00,0.00,0.00" fill="1" layer="1" shape="10,30 30,30 30,10 10,10 10,30"/>
</shapes>
