<?xml version="1.0" encoding="UTF-8"?>

<!--<routes xmlns:xsi="http://www.w3.org/2001/XMLSchema-instance" xsi:noNamespaceSchemaLocation="http://sumo-sim.org/xsd/routes_file.xsd"> -->

<routes>
    <!-- <vType id="car-fast"          accel="2.6" decel="4.5"  length="5.0" maxSpeed="33.33" sigma="0.5" minGap="2.5" color= "0,1,0"/> -->

    <vType id="car-slow"          accel="1.5" decel="4.5"  length="4.0" maxSpeed="25.00" sigma="0.5" minGap="2.5" color= "1,1,1" />

    <!-- <vType id="car-very-slow"     accel="0.8" decel="4.5"  length="3.0" maxSpeed="16.66" sigma="0.5" minGap="2.5" color= "1,1,0"/> -->

    <!-- yellow = very slow   white = slow green = fast-->

    <!-- criacao das rotas por onde os veiculo passarao -->

    <route id="route1" edges="11ato10a 10ato9a 9ato8a 8ato7a 7ato6a 6ato5a 5ato4a 4ato3a 3ato2a 2ato1a" />
    <route id="route2" edges="10ato9a 9ato8a 8ato7a 7ato6a 6ato5a 5ato4a 4ato3a 3ato2a 2ato1a" />
    <route id="route3" edges="9ato8a 8ato7a 7ato6a 6ato5a 5ato4a 4ato3a 3ato2a 2ato1a" />
    <route id="route4" edges="8ato7a 7ato6a 6ato5a 5ato4a 4ato3a 3ato2a 2ato1a" />
    <route id="route5" edges="7ato6a 6ato5a 5ato4a 4ato3a 3ato2a 2ato1a" />
    <route id="route6" edges="6ato5a 5ato4a 4ato3a 3ato2a 2ato1a" />
    <route id="route7" edges="5ato4a 4ato3a 3ato2a 2ato1a" />
    <route id="route8" edges="4ato3a 3ato2a 2ato1a" />
    <route id="route9" edges="3ato2a 2ato1a" />
    <route id="route10" edges="2ato1a" />

    <route id ="route11" edges ="1bto2b 2bto3b 3bto4b 4bto5b 5bto6b 6bto7b 7bto8b 8bto9b 9bto10b 10bto11b"/>
    <route id ="route12" edges ="2bto3b 3bto4b 4bto5b 5bto6b 6bto7b 7bto8b 8bto9b 9bto10b 10bto11b"/>
    <route id ="route13" edges ="3bto4b 4bto5b 5bto6b 6bto7b 7bto8b 8bto9b 9bto10b 10bto11b"/>
    <route id ="route14" edges ="4bto5b 5bto6b 6bto7b 7bto8b 8bto9b 9bto10b 10bto11b"/>
    <route id ="route15" edges ="5bto6b 6bto7b 7bto8b 8bto9b 9bto10b 10bto11b"/>
    <route id ="route16" edges ="6bto7b 7bto8b 8bto9b 9bto10b 10bto11b"/>
    <route id ="route17" edges ="7bto8b 8bto9b 9bto10b 10bto11b"/>
    <route id ="route18" edges ="8bto9b 9bto10b 10bto11b"/>
    <route id ="route19" edges ="9bto10b 10bto11b"/>
    <route id ="route20" edges ="10bto11b"/>

    <!-- criacao do fluxo de veiculo, quantos veiculos do tipo "car-slow" seguirao as diferentes rotas
    Foram add rotas diferentes para garantir que veiculos entre em diferentes pontos da pista
    e possam estar distribuidos pelo cenario-->

    <flow begin="0" departPos="free" id="flow1" period="5" number="10" route ="route1" type="car-slow" departSpeed="random" departlane="free"/>
    <flow begin="0" departPos="free" id="flow2" period="5" number="10" route ="route2" type="car-slow" departSpeed="random" departlane="free"/>
    <flow begin="0" departPos="free" id="flow3" period="5" number="10" route ="route3" type="car-slow" departSpeed="random" departlane="free"/>
    <flow begin="0" departPos="free" id="flow4" period="5" number="10" route ="route4" type="car-slow" departSpeed="random" departlane="free"/>
    <flow begin="0" departPos="free" id="flow5" period="5" number="10" route ="route5" type="car-slow" departSpeed="random" departlane="free"/>
    <flow begin="0" departPos="free" id="flow6" period="5" number="10" route ="route6" type="car-slow" departSpeed="random" departlane="free"/>
    <flow begin="0" departPos="free" id="flow7" period="5" number="10" route ="route7" type="car-slow" departSpeed="random" departlane="free"/>
    <flow begin="0" departPos="free" id="flow8" period="5" number="10" route ="route8" type="car-slow" departSpeed="random" departlane="free"/>
    <flow begin="0" departPos="free" id="flow9" period="5" number="10" route ="route9" type="car-slow" departSpeed="random" departlane="free"/>
    <flow begin="0" departPos="free" id="flow10" period="5" number="10" route ="route10" type="car-slow" departSpeed="random" departlane="free"/>

    <flow begin="0" departPos="free" id="flow11" period="5" number="10" route ="route11" type="car-slow" departSpeed="random" departlane="free"/>
    <flow begin="0" departPos="free" id="flow12" period="5" number="10" route ="route12" type="car-slow" departSpeed="random" departlane="free"/>
    <flow begin="0" departPos="free" id="flow13" period="5" number="10" route ="route13" type="car-slow" departSpeed="random" departlane="free"/>
    <flow begin="0" departPos="free" id="flow14" period="5" number="10" route ="route14" type="car-slow" departSpeed="random" departlane="free"/>
    <flow begin="0" departPos="free" id="flow15" period="5" number="10" route ="route15" type="car-slow" departSpeed="random" departlane="free"/>
    <flow begin="0" departPos="free" id="flow16" period="5" number="10" route ="route16" type="car-slow" departSpeed="random" departlane="free"/>
    <flow begin="0" departPos="free" id="flow17" period="5" number="10" route ="route17" type="car-slow" departSpeed="random" departlane="free"/>
    <flow begin="0" departPos="free" id="flow18" period="5" number="10" route ="route18" type="car-slow" departSpeed="random" departlane="free"/>
    <flow begin="0" departPos="free" id="flow19" period="5" number="10" route ="route19" type="car-slow" departSpeed="random" departlane="free"/>
    <flow begin="0" departPos="free" id="flow20" period="5" number="10" route ="route20" type="car-slow" departSpeed="random" departlane="free"/>

    <!-- End 
    <route id="route1" edges="21ato20a 20ato19a 19ato18a 18ato17a 17ato16a 16ato15a 15ato14a 14ato13a 13ato12a 12ato11a 11ato10a 10ato9a 9ato8a 8ato7a 7ato6a 6ato5a 5ato4a 4ato3a 3ato2a 2ato1a" />
    <route id="route2" edges="20ato19a 19ato18a 18ato17a 17ato16a 16ato15a 15ato14a 14ato13a 13ato12a 12ato11a 11ato10a 10ato9a 9ato8a 8ato7a 7ato6a 6ato5a 5ato4a 4ato3a 3ato2a 2ato1a" />
    <route id="route3" edges="19ato18a 18ato17a 17ato16a 16ato15a 15ato14a 14ato13a 13ato12a 12ato11a 11ato10a 10ato9a 9ato8a 8ato7a 7ato6a 6ato5a 5ato4a 4ato3a 3ato2a 2ato1a" />
    <route id="route4" edges="18ato17a 17ato16a 16ato15a 15ato14a 14ato13a 13ato12a 12ato11a 11ato10a 10ato9a 9ato8a 8ato7a 7ato6a 6ato5a 5ato4a 4ato3a 3ato2a 2ato1a" />
    <route id="route5" edges="17ato16a 16ato15a 15ato14a 14ato13a 13ato12a 12ato11a 11ato10a 10ato9a 9ato8a 8ato7a 7ato6a 6ato5a 5ato4a 4ato3a 3ato2a 2ato1a" />
    <route id="route6" edges="16ato15a 15ato14a 14ato13a 13ato12a 12ato11a 11ato10a 10ato9a 9ato8a 8ato7a 7ato6a 6ato5a 5ato4a 4ato3a 3ato2a 2ato1a" />
    <route id="route7" edges="15ato14a 14ato13a 13ato12a 12ato11a 11ato10a 10ato9a 9ato8a 8ato7a 7ato6a 6ato5a 5ato4a 4ato3a 3ato2a 2ato1a" />
    <route id="route8" edges="14ato13a 13ato12a 12ato11a 11ato10a 10ato9a 9ato8a 8ato7a 7ato6a 6ato5a 5ato4a 4ato3a 3ato2a 2ato1a" />
    <route id="route9" edges="13ato12a 12ato11a 11ato10a 10ato9a 9ato8a 8ato7a 7ato6a 6ato5a 5ato4a 4ato3a 3ato2a 2ato1a" />
    <route id="route10" edges="12ato11a 11ato10a 10ato9a 9ato8a 8ato7a 7ato6a 6ato5a 5ato4a 4ato3a 3ato2a 2ato1a" />
    <route id="route11" edges="11ato10a 10ato9a 9ato8a 8ato7a 7ato6a 6ato5a 5ato4a 4ato3a 3ato2a 2ato1a" />
    <route id="route12" edges="10ato9a 9ato8a 8ato7a 7ato6a 6ato5a 5ato4a 4ato3a 3ato2a 2ato1a" />
    <route id="route13" edges="9ato8a 8ato7a 7ato6a 6ato5a 5ato4a 4ato3a 3ato2a 2ato1a" />
    <route id="route14" edges="8ato7a 7ato6a 6ato5a 5ato4a 4ato3a 3ato2a 2ato1a" />
    <route id="route15" edges="7ato6a 6ato5a 5ato4a 4ato3a 3ato2a 2ato1a" />
    <route id="route16" edges="6ato5a 5ato4a 4ato3a 3ato2a 2ato1a" />
    <route id="route17" edges="5ato4a 4ato3a 3ato2a 2ato1a" />
    <route id="route18" edges="4ato3a 3ato2a 2ato1a" />
    <route id="route19" edges="3ato2a 2ato1a" />
    <route id="route20" edges="2ato1a" />

    <route id ="route21" edges ="1bto2b 2bto3b 3bto4b 4bto5b 5bto6b 6bto7b 7bto8b 8bto9b 9bto10b 10bto11b 11bto12b 12bto13b 13bto14b 14bto15b 15bto16b 16bto17b 17bto18b 18bto19b 19bto20b 20bto21b"/>
    <route id ="route22" edges ="2bto3b 3bto4b 4bto5b 5bto6b 6bto7b 7bto8b 8bto9b 9bto10b 10bto11b 11bto12b 12bto13b 13bto14b 14bto15b 15bto16b 16bto17b 17bto18b 18bto19b 19bto20b 20bto21b"/>
    <route id ="route23" edges ="3bto4b 4bto5b 5bto6b 6bto7b 7bto8b 8bto9b 9bto10b 10bto11b 11bto12b 12bto13b 13bto14b 14bto15b 15bto16b 16bto17b 17bto18b 18bto19b 19bto20b 20bto21b"/>
    <route id ="route24" edges ="4bto5b 5bto6b 6bto7b 7bto8b 8bto9b 9bto10b 10bto11b 11bto12b 12bto13b 13bto14b 14bto15b 15bto16b 16bto17b 17bto18b 18bto19b 19bto20b 20bto21b"/>
    <route id ="route25" edges ="5bto6b 6bto7b 7bto8b 8bto9b 9bto10b 10bto11b 11bto12b 12bto13b 13bto14b 14bto15b 15bto16b 16bto17b 17bto18b 18bto19b 19bto20b 20bto21b"/>
    <route id ="route26" edges ="6bto7b 7bto8b 8bto9b 9bto10b 10bto11b 11bto12b 12bto13b 13bto14b 14bto15b 15bto16b 16bto17b 17bto18b 18bto19b 19bto20b 20bto21b"/>
    <route id ="route27" edges ="7bto8b 8bto9b 9bto10b 10bto11b 11bto12b 12bto13b 13bto14b 14bto15b 15bto16b 16bto17b 17bto18b 18bto19b 19bto20b 20bto21b"/>
    <route id ="route28" edges ="8bto9b 9bto10b 10bto11b 11bto12b 12bto13b 13bto14b 14bto15b 15bto16b 16bto17b 17bto18b 18bto19b 19bto20b 20bto21b"/>
    <route id ="route29" edges ="9bto10b 10bto11b 11bto12b 12bto13b 13bto14b 14bto15b 15bto16b 16bto17b 17bto18b 18bto19b 19bto20b 20bto21b"/>
    <route id ="route30" edges ="10bto11b 11bto12b 12bto13b 13bto14b 14bto15b 15bto16b 16bto17b 17bto18b 18bto19b 19bto20b 20bto21b"/>
    <route id ="route31" edges ="11bto12b 12bto13b 13bto14b 14bto15b 15bto16b 16bto17b 17bto18b 18bto19b 19bto20b 20bto21b"/>
    <route id ="route32" edges ="12bto13b 13bto14b 14bto15b 15bto16b 16bto17b 17bto18b 18bto19b 19bto20b 20bto21b"/>
    <route id ="route33" edges ="13bto14b 14bto15b 15bto16b 16bto17b 17bto18b 18bto19b 19bto20b 20bto21b"/>
    <route id ="route34" edges ="14bto15b 15bto16b 16bto17b 17bto18b 18bto19b 19bto20b 20bto21b"/>
    <route id ="route35" edges ="15bto16b 16bto17b 17bto18b 18bto19b 19bto20b 20bto21b"/>
    <route id ="route36" edges ="16bto17b 17bto18b 18bto19b 19bto20b 20bto21b"/>
    <route id ="route37" edges ="17bto18b 18bto19b 19bto20b 20bto21b"/>
    <route id ="route38" edges ="18bto19b 19bto20b 20bto21b"/>
    <route id ="route39" edges ="19bto20b 20bto21b"/>
    <route id ="route40" edges ="20bto21b"/>

    <flow begin="0" departPos="free" id="flow1a" period="5" number="10" route ="route1" type="car-fast" departSpeed="random" departlane="free"/>
    <flow begin="0" departPos="free" id="flow1b" period="5" number="10" route ="route1" type="car-slow" departSpeed="random" departlane="free"/>
    <flow begin="0" departPos="free" id="flow1c" period="5" number="10" route ="route1" type="car-very-slow" departSpeed="random" departlane="free"/>

    <flow begin="0" departPos="free" id="flow2a" period="5" number="10" route ="route2" type="car-fast" departSpeed="random" departlane="free"/>
    <flow begin="0" departPos="free" id="flow2b" period="5" number="10" route ="route2" type="car-slow" departSpeed="random" departlane="free"/>
    <flow begin="0" departPos="free" id="flow2c" period="5" number="10" route ="route2" type="car-very-slow" departSpeed="random" departlane="free"/>

    <flow begin="0" departPos="free" id="flow3a" period="5" number="10" route ="route3" type="car-fast" departSpeed="random" departlane="free"/>
    <flow begin="0" departPos="free" id="flow3b" period="5" number="10" route ="route3" type="car-slow" departSpeed="random" departlane="free"/>
    <flow begin="0" departPos="free" id="flow3c" period="5" number="10" route ="route3" type="car-very-slow" departSpeed="random" departlane="free"/>

    <flow begin="0" departPos="free" id="flow4a" period="5" number="10" route ="route4" type="car-fast" departSpeed="random" departlane="free"/>
    <flow begin="0" departPos="free" id="flow4b" period="5" number="10" route ="route4" type="car-slow" departSpeed="random" departlane="free"/>
    <flow begin="0" departPos="free" id="flow4c" period="5" number="10" route ="route4" type="car-very-slow" departSpeed="random" departlane="free"/>

    <flow begin="0" departPos="free" id="flow5a" period="5" number="10" route ="route5" type="car-fast" departSpeed="random" departlane="free"/>
    <flow begin="0" departPos="free" id="flow5b" period="5" number="10" route ="route5" type="car-slow" departSpeed="random" departlane="free"/>
    <flow begin="0" departPos="free" id="flow5c" period="5" number="10" route ="route5" type="car-very-slow" departSpeed="random" departlane="free"/>

    <flow begin="0" departPos="free" id="flow6a" period="5" number="10" route ="route6" type="car-fast" departSpeed="random" departlane="free"/>
    <flow begin="0" departPos="free" id="flow6b" period="5" number="10" route ="route6" type="car-slow" departSpeed="random" departlane="free"/>
    <flow begin="0" departPos="free" id="flow6c" period="5" number="10" route ="route6" type="car-very-slow" departSpeed="random" departlane="free"/>

    <flow begin="0" departPos="free" id="flow7a" period="5" number="10" route ="route7" type="car-fast" departSpeed="random" departlane="free"/>
    <flow begin="0" departPos="free" id="flow7b" period="5" number="10" route ="route7" type="car-slow" departSpeed="random" departlane="free"/>
    <flow begin="0" departPos="free" id="flow7c" period="5" number="10" route ="route7" type="car-very-slow" departSpeed="random" departlane="free"/>

    <flow begin="0" departPos="free" id="flow8a" period="5" number="10" route ="route8" type="car-fast" departSpeed="random" departlane="free"/>
    <flow begin="0" departPos="free" id="flow8b" period="5" number="10" route ="route8" type="car-slow" departSpeed="random" departlane="free"/>
    <flow begin="0" departPos="free" id="flow8c" period="5" number="10" route ="route8" type="car-very-slow" departSpeed="random" departlane="free"/>

    <flow begin="0" departPos="free" id="flow9a" period="5" number="10" route ="route9" type="car-fast" departSpeed="random" departlane="free"/>
    <flow begin="0" departPos="free" id="flow9b" period="5" number="10" route ="route9" type="car-slow" departSpeed="random" departlane="free"/>
    <flow begin="0" departPos="free" id="flow9c" period="5" number="10" route ="route9" type="car-very-slow" departSpeed="random" departlane="free"/>


    <flow begin="0" departPos="free" id="flow10a" period="5" number="10" route ="route10" type="car-fast" departSpeed="random" departlane="free"/>
    <flow begin="0" departPos="free" id="flow10b" period="5" number="10" route ="route10" type="car-slow" departSpeed="random" departlane="free"/>
    <flow begin="0" departPos="free" id="flow10c" period="5" number="10" route ="route10" type="car-very-slow" departSpeed="random" departlane="free"/>

    <flow begin="0" departPos="free" id="flow11a" period="5" number="10" route ="route11" type="car-fast" departSpeed="random" departlane="free"/>
    <flow begin="0" departPos="free" id="flow11b" period="5" number="10" route ="route11" type="car-slow" departSpeed="random" departlane="free"/>
    <flow begin="0" departPos="free" id="flow11c" period="5" number="10" route ="route11" type="car-very-slow" departSpeed="random" departlane="free"/>

    <flow begin="0" departPos="free" id="flow12a" period="5" number="10" route ="route12" type="car-fast" departSpeed="random" departlane="free"/>
    <flow begin="0" departPos="free" id="flow12b" period="5" number="10" route ="route12" type="car-slow" departSpeed="random" departlane="free"/>
    <flow begin="0" departPos="free" id="flow12c" period="5" number="10" route ="route12" type="car-very-slow" departSpeed="random" departlane="free"/>

    <flow begin="0" departPos="free" id="flow13a" period="5" number="10" route ="route13" type="car-fast" departSpeed="random" departlane="free"/>
    <flow begin="0" departPos="free" id="flow13b" period="5" number="10" route ="route13" type="car-slow" departSpeed="random" departlane="free"/>
    <flow begin="0" departPos="free" id="flow13c" period="5" number="10" route ="route13" type="car-very-slow" departSpeed="random" departlane="free"/>

    <flow begin="0" departPos="free" id="flow14a" period="5" number="10" route ="route14" type="car-fast" departSpeed="random" departlane="free"/>
    <flow begin="0" departPos="free" id="flow14b" period="5" number="10" route ="route14" type="car-slow" departSpeed="random" departlane="free"/>
    <flow begin="0" departPos="free" id="flow14c" period="5" number="10" route ="route14" type="car-very-slow" departSpeed="random" departlane="free"/>

    <flow begin="0" departPos="free" id="flow15a" period="5" number="10" route ="route15" type="car-fast" departSpeed="random" departlane="free"/>
    <flow begin="0" departPos="free" id="flow15b" period="5" number="10" route ="route15" type="car-slow" departSpeed="random" departlane="free"/>
    <flow begin="0" departPos="free" id="flow15c" period="5" number="10" route ="route15" type="car-very-slow" departSpeed="random" departlane="free"/>

    <flow begin="0" departPos="free" id="flow16a" period="5" number="10" route ="route16" type="car-fast" departSpeed="random" departlane="free"/>
    <flow begin="0" departPos="free" id="flow16b" period="5" number="10" route ="route16" type="car-slow" departSpeed="random" departlane="free"/>
    <flow begin="0" departPos="free" id="flow16c" period="5" number="10" route ="route16" type="car-very-slow" departSpeed="random" departlane="free"/>

    <flow begin="0" departPos="free" id="flow17a" period="5" number="10" route ="route17" type="car-fast" departSpeed="random" departlane="free"/>
    <flow begin="0" departPos="free" id="flow17b" period="5" number="10" route ="route17" type="car-slow" departSpeed="random" departlane="free"/>
    <flow begin="0" departPos="free" id="flow17c" period="5" number="10" route ="route17" type="car-very-slow" departSpeed="random" departlane="free"/>

    <flow begin="0" departPos="free" id="flow18a" period="5" number="10" route ="route18" type="car-fast" departSpeed="random" departlane="free"/>
    <flow begin="0" departPos="free" id="flow18b" period="5" number="10" route ="route18" type="car-slow" departSpeed="random" departlane="free"/>
    <flow begin="0" departPos="free" id="flow18c" period="5" number="10" route ="route18" type="car-very-slow" departSpeed="random" departlane="free"/>

    <flow begin="0" departPos="free" id="flow19a" period="5" number="10" route ="route19" type="car-fast" departSpeed="random" departlane="free"/>
    <flow begin="0" departPos="free" id="flow19b" period="5" number="10" route ="route19" type="car-slow" departSpeed="random" departlane="free"/>
    <flow begin="0" departPos="free" id="flow19c" period="5" number="10" route ="route19" type="car-very-slow" departSpeed="random" departlane="free"/>

    <flow begin="0" departPos="free" id="flow20a" period="5" number="10" route ="route20" type="car-fast" departSpeed="random" departlane="free"/>
    <flow begin="0" departPos="free" id="flow20b" period="5" number="10" route ="route20" type="car-slow" departSpeed="random" departlane="free"/>
    <flow begin="0" departPos="free" id="flow20c" period="5" number="10" route ="route20" type="car-very-slow" departSpeed="random" departlane="free"/>

    <flow begin="0" departPos="free" id="flow21a" period="5" number="10" route ="route21" type="car-fast" departSpeed="random" departlane="free"/>
    <flow begin="0" departPos="free" id="flow21b" period="5" number="10" route ="route21" type="car-slow" departSpeed="random" departlane="free"/>
    <flow begin="0" departPos="free" id="flow21c" period="5" number="10" route ="route21" type="car-very-slow" departSpeed="random" departlane="free"/>

    <flow begin="0" departPos="free" id="flow22a" period="5" number="10" route ="route22" type="car-fast" departSpeed="random" departlane="free"/>
    <flow begin="0" departPos="free" id="flow22b" period="5" number="10" route ="route22" type="car-slow" departSpeed="random" departlane="free"/>
    <flow begin="0" departPos="free" id="flow22c" period="5" number="10" route ="route22" type="car-very-slow" departSpeed="random" departlane="free"/>

    <flow begin="0" departPos="free" id="flow23a" period="5" number="10" route ="route23" type="car-fast" departSpeed="random" departlane="free"/>
    <flow begin="0" departPos="free" id="flow23b" period="5" number="10" route ="route23" type="car-slow" departSpeed="random" departlane="free"/>
    <flow begin="0" departPos="free" id="flow23c" period="5" number="10" route ="route23" type="car-very-slow" departSpeed="random" departlane="free"/>

    <flow begin="0" departPos="free" id="flow24a" period="5" number="10" route ="route24" type="car-fast" departSpeed="random" departlane="free"/>
    <flow begin="0" departPos="free" id="flow24b" period="5" number="10" route ="route24" type="car-slow" departSpeed="random" departlane="free"/>
    <flow begin="0" departPos="free" id="flow24c" period="5" number="10" route ="route24" type="car-very-slow" departSpeed="random" departlane="free"/>

    <flow begin="0" departPos="free" id="flow25a" period="5" number="10" route ="route25" type="car-fast" departSpeed="random" departlane="free"/>
    <flow begin="0" departPos="free" id="flow25b" period="5" number="10" route ="route25" type="car-slow" departSpeed="random" departlane="free"/>
    <flow begin="0" departPos="free" id="flow25c" period="5" number="10" route ="route25" type="car-very-slow" departSpeed="random" departlane="free"/>

    <flow begin="0" departPos="free" id="flow26a" period="5" number="10" route ="route26" type="car-fast" departSpeed="random" departlane="free"/>
    <flow begin="0" departPos="free" id="flow26b" period="5" number="10" route ="route26" type="car-slow" departSpeed="random" departlane="free"/>
    <flow begin="0" departPos="free" id="flow26c" period="5" number="10" route ="route26" type="car-very-slow" departSpeed="random" departlane="free"/>

    <flow begin="0" departPos="free" id="flow27a" period="5" number="10" route ="route27" type="car-fast" departSpeed="random" departlane="free"/>
    <flow begin="0" departPos="free" id="flow27b" period="5" number="10" route ="route27" type="car-slow" departSpeed="random" departlane="free"/>
    <flow begin="0" departPos="free" id="flow27c" period="5" number="10" route ="route27" type="car-very-slow" departSpeed="random" departlane="free"/>

    <flow begin="0" departPos="free" id="flow28a" period="5" number="10" route ="route28" type="car-fast" departSpeed="random" departlane="free"/>
    <flow begin="0" departPos="free" id="flow28b" period="5" number="10" route ="route28" type="car-slow" departSpeed="random" departlane="free"/>
    <flow begin="0" departPos="free" id="flow28c" period="5" number="10" route ="route28" type="car-very-slow" departSpeed="random" departlane="free"/>

    <flow begin="0" departPos="free" id="flow29a" period="5" number="10" route ="route29" type="car-fast" departSpeed="random" departlane="free"/>
    <flow begin="0" departPos="free" id="flow29b" period="5" number="10" route ="route29" type="car-slow" departSpeed="random" departlane="free"/>
    <flow begin="0" departPos="free" id="flow29c" period="5" number="10" route ="route29" type="car-very-slow" departSpeed="random" departlane="free"/>

    <flow begin="0" departPos="free" id="flow30a" period="5" number="10" route ="route30" type="car-fast" departSpeed="random" departlane="free"/>
    <flow begin="0" departPos="free" id="flow30b" period="5" number="10" route ="route30" type="car-slow" departSpeed="random" departlane="free"/>
    <flow begin="0" departPos="free" id="flow30c" period="5" number="10" route ="route30" type="car-very-slow" departSpeed="random" departlane="free"/>

    <flow begin="0" departPos="free" id="flow31a" period="5" number="10" route ="route31" type="car-fast" departSpeed="random" departlane="free"/>
    <flow begin="0" departPos="free" id="flow31b" period="5" number="10" route ="route31" type="car-slow" departSpeed="random" departlane="free"/>
    <flow begin="0" departPos="free" id="flow31c" period="5" number="10" route ="route31" type="car-very-slow" departSpeed="random" departlane="free"/>

    <flow begin="0" departPos="free" id="flow32a" period="5" number="10" route ="route32" type="car-fast" departSpeed="random" departlane="free"/>
    <flow begin="0" departPos="free" id="flow32b" period="5" number="10" route ="route32" type="car-slow" departSpeed="random" departlane="free"/>
    <flow begin="0" departPos="free" id="flow32c" period="5" number="10" route ="route32" type="car-very-slow" departSpeed="random" departlane="free"/>

    <flow begin="0" departPos="free" id="flow33a" period="5" number="10" route ="route33" type="car-fast" departSpeed="random" departlane="free"/>
    <flow begin="0" departPos="free" id="flow33b" period="5" number="10" route ="route33" type="car-slow" departSpeed="random" departlane="free"/>
    <flow begin="0" departPos="free" id="flo330c" period="5" number="10" route ="route33" type="car-very-slow" departSpeed="random" departlane="free"/>

    <flow begin="0" departPos="free" id="flow34a" period="5" number="10" route ="route34" type="car-fast" departSpeed="random" departlane="free"/>
    <flow begin="0" departPos="free" id="flow34b" period="5" number="10" route ="route34" type="car-slow" departSpeed="random" departlane="free"/>
    <flow begin="0" departPos="free" id="flow34c" period="5" number="10" route ="route34" type="car-very-slow" departSpeed="random" departlane="free"/>

    <flow begin="0" departPos="free" id="flow35a" period="5" number="10" route ="route35" type="car-fast" departSpeed="random" departlane="free"/>
    <flow begin="0" departPos="free" id="flow35b" period="5" number="10" route ="route35" type="car-slow" departSpeed="random" departlane="free"/>
    <flow begin="0" departPos="free" id="flow35c" period="5" number="10" route ="route35" type="car-very-slow" departSpeed="random" departlane="free"/>

    <flow begin="0" departPos="free" id="flow36a" period="5" number="10" route ="route36" type="car-fast" departSpeed="random" departlane="free"/>
    <flow begin="0" departPos="free" id="flow36b" period="5" number="10" route ="route36" type="car-slow" departSpeed="random" departlane="free"/>
    <flow begin="0" departPos="free" id="flow36c" period="5" number="10" route ="route36" type="car-very-slow" departSpeed="random" departlane="free"/>

    <flow begin="0" departPos="free" id="flow37a" period="5" number="10" route ="route37" type="car-fast" departSpeed="random" departlane="free"/>
    <flow begin="0" departPos="free" id="flow37b" period="5" number="10" route ="route37" type="car-slow" departSpeed="random" departlane="free"/>
    <flow begin="0" departPos="free" id="flow37c" period="5" number="10" route ="route37" type="car-very-slow" departSpeed="random" departlane="free"/>

    <flow begin="0" departPos="free" id="flow38a" period="5" number="10" route ="route38" type="car-fast" departSpeed="random" departlane="free"/>
    <flow begin="0" departPos="free" id="flow38b" period="5" number="10" route ="route38" type="car-slow" departSpeed="random" departlane="free"/>
    <flow begin="0" departPos="free" id="flow38c" period="5" number="10" route ="route38" type="car-very-slow" departSpeed="random" departlane="free"/>

    <flow begin="0" departPos="free" id="flow39a" period="5" number="10" route ="route39" type="car-fast" departSpeed="random" departlane="free"/>
    <flow begin="0" departPos="free" id="flow39b" period="5" number="10" route ="route39" type="car-slow" departSpeed="random" departlane="free"/>
    <flow begin="0" departPos="free" id="flow39c" period="5" number="10" route ="route39" type="car-very-slow" departSpeed="random" departlane="free"/>

    <flow begin="0" departPos="free" id="flow40a" period="5" number="10" route ="route40" type="car-fast" departSpeed="random" departlane="free"/>
    <flow begin="0" departPos="free" id="flow40b" period="5" number="10" route ="route40" type="car-slow" departSpeed="random" departlane="free"/>
    <flow begin="0" departPos="free" id="flow40c" period="5" number="10" route ="route40" type="car-very-slow" departSpeed="random" departlane="free"/>
    -->

</routes>
