<?xml version="1.0" encoding="UTF-8"?>

<!-- generated on Wed Aug 19 16:55:31 2015 by SUMO netconvert Version 0.21.0
<?xml version="1.0" encoding="UTF-8"?>

<configuration xmlns:xsi="http://www.w3.org/2001/XMLSchema-instance" xsi:noNamespaceSchemaLocation="http://sumo-sim.org/xsd/netconvertConfiguration.xsd">

    <input>
        <node-files value="test1.nod.xml"/>
        <edge-files value="test1.edg.xml"/>
    </input>

    <output>
        <output-file value="test1.net.xml"/>
    </output>

</configuration>
-->

<net version="0.13" xmlns:xsi="http://www.w3.org/2001/XMLSchema-instance" xsi:noNamespaceSchemaLocation="http://sumo-sim.org/xsd/net_file.xsd">

    <location netOffset="0.00,0.00" convBoundary="0.00,0.00,50000.00,5.00" origBoundary="0.00,0.00,50000.00,5.00" projParameter="!"/>

    <edge id=":10a_0" function="internal">
        <lane id=":10a_0_0" index="0" speed="13.90" length="0.10" shape="45000.00,6.65 45000.00,6.65"/>
    </edge>
    <edge id=":10b_0" function="internal">
        <lane id=":10b_0_0" index="0" speed="13.90" length="0.10" shape="45000.00,-1.65 45000.00,-1.65"/>
    </edge>
    <edge id=":2a_0" function="internal">
        <lane id=":2a_0_0" index="0" speed="13.90" length="0.10" shape="5000.00,6.65 5000.00,6.65"/>
    </edge>
    <edge id=":2b_0" function="internal">
        <lane id=":2b_0_0" index="0" speed="13.90" length="0.10" shape="5000.00,-1.65 5000.00,-1.65"/>
    </edge>
    <edge id=":3a_0" function="internal">
        <lane id=":3a_0_0" index="0" speed="13.90" length="0.10" shape="10000.00,6.65 10000.00,6.65"/>
    </edge>
    <edge id=":3b_0" function="internal">
        <lane id=":3b_0_0" index="0" speed="13.90" length="0.10" shape="10000.00,-1.65 10000.00,-1.65"/>
    </edge>
    <edge id=":4a_0" function="internal">
        <lane id=":4a_0_0" index="0" speed="13.90" length="0.10" shape="15000.00,6.65 15000.00,6.65"/>
    </edge>
    <edge id=":4b_0" function="internal">
        <lane id=":4b_0_0" index="0" speed="13.90" length="0.10" shape="15000.00,-1.65 15000.00,-1.65"/>
    </edge>
    <edge id=":5a_0" function="internal">
        <lane id=":5a_0_0" index="0" speed="13.90" length="0.10" shape="20000.00,6.65 20000.00,6.65"/>
    </edge>
    <edge id=":5b_0" function="internal">
        <lane id=":5b_0_0" index="0" speed="13.90" length="0.10" shape="20000.00,-1.65 20000.00,-1.65"/>
    </edge>
    <edge id=":6a_0" function="internal">
        <lane id=":6a_0_0" index="0" speed="13.90" length="0.10" shape="25000.00,6.65 25000.00,6.65"/>
    </edge>
    <edge id=":6b_0" function="internal">
        <lane id=":6b_0_0" index="0" speed="13.90" length="0.10" shape="25000.00,-1.65 25000.00,-1.65"/>
    </edge>
    <edge id=":7a_0" function="internal">
        <lane id=":7a_0_0" index="0" speed="13.90" length="0.10" shape="30000.00,6.65 30000.00,6.65"/>
    </edge>
    <edge id=":7b_0" function="internal">
        <lane id=":7b_0_0" index="0" speed="13.90" length="0.10" shape="30000.00,-1.65 30000.00,-1.65"/>
    </edge>
    <edge id=":8a_0" function="internal">
        <lane id=":8a_0_0" index="0" speed="13.90" length="0.10" shape="35000.00,6.65 35000.00,6.65"/>
    </edge>
    <edge id=":8b_0" function="internal">
        <lane id=":8b_0_0" index="0" speed="13.90" length="0.10" shape="35000.00,-1.65 35000.00,-1.65"/>
    </edge>
    <edge id=":9a_0" function="internal">
        <lane id=":9a_0_0" index="0" speed="13.90" length="0.10" shape="40000.00,6.65 40000.00,6.65"/>
    </edge>
    <edge id=":9b_0" function="internal">
        <lane id=":9b_0_0" index="0" speed="13.90" length="0.10" shape="40000.00,-1.65 40000.00,-1.65"/>
    </edge>

    <edge id="10ato9a" from="10a" to="9a" priority="-1">
        <lane id="10ato9a_0" index="0" speed="13.90" length="5000.00" shape="45000.00,6.65 40000.00,6.65"/>
    </edge>
    <edge id="10bto11b" from="10b" to="11b" priority="-1">
        <lane id="10bto11b_0" index="0" speed="13.90" length="5000.00" shape="45000.00,-1.65 50000.00,-1.65"/>
    </edge>
    <edge id="11ato10a" from="11a" to="10a" priority="-1">
        <lane id="11ato10a_0" index="0" speed="13.90" length="5000.00" shape="50000.00,6.65 45000.00,6.65"/>
    </edge>
    <edge id="1bto2b" from="1b" to="2b" priority="-1">
        <lane id="1bto2b_0" index="0" speed="13.90" length="5000.00" shape="0.00,-1.65 5000.00,-1.65"/>
    </edge>
    <edge id="2ato1a" from="2a" to="1a" priority="-1">
        <lane id="2ato1a_0" index="0" speed="13.90" length="5000.00" shape="5000.00,6.65 0.00,6.65"/>
    </edge>
    <edge id="2bto3b" from="2b" to="3b" priority="-1">
        <lane id="2bto3b_0" index="0" speed="13.90" length="5000.00" shape="5000.00,-1.65 10000.00,-1.65"/>
    </edge>
    <edge id="3ato2a" from="3a" to="2a" priority="-1">
        <lane id="3ato2a_0" index="0" speed="13.90" length="5000.00" shape="10000.00,6.65 5000.00,6.65"/>
    </edge>
    <edge id="3bto4b" from="3b" to="4b" priority="-1">
        <lane id="3bto4b_0" index="0" speed="13.90" length="5000.00" shape="10000.00,-1.65 15000.00,-1.65"/>
    </edge>
    <edge id="4ato3a" from="4a" to="3a" priority="-1">
        <lane id="4ato3a_0" index="0" speed="13.90" length="5000.00" shape="15000.00,6.65 10000.00,6.65"/>
    </edge>
    <edge id="4bto5b" from="4b" to="5b" priority="-1">
        <lane id="4bto5b_0" index="0" speed="13.90" length="5000.00" shape="15000.00,-1.65 20000.00,-1.65"/>
    </edge>
    <edge id="5ato4a" from="5a" to="4a" priority="-1">
        <lane id="5ato4a_0" index="0" speed="13.90" length="5000.00" shape="20000.00,6.65 15000.00,6.65"/>
    </edge>
    <edge id="5bto6b" from="5b" to="6b" priority="-1">
        <lane id="5bto6b_0" index="0" speed="13.90" length="5000.00" shape="20000.00,-1.65 25000.00,-1.65"/>
    </edge>
    <edge id="6ato5a" from="6a" to="5a" priority="-1">
        <lane id="6ato5a_0" index="0" speed="13.90" length="5000.00" shape="25000.00,6.65 20000.00,6.65"/>
    </edge>
    <edge id="6bto7b" from="6b" to="7b" priority="-1">
        <lane id="6bto7b_0" index="0" speed="13.90" length="5000.00" shape="25000.00,-1.65 30000.00,-1.65"/>
    </edge>
    <edge id="7ato6a" from="7a" to="6a" priority="-1">
        <lane id="7ato6a_0" index="0" speed="13.90" length="5000.00" shape="30000.00,6.65 25000.00,6.65"/>
    </edge>
    <edge id="7bto8b" from="7b" to="8b" priority="-1">
        <lane id="7bto8b_0" index="0" speed="13.90" length="5000.00" shape="30000.00,-1.65 35000.00,-1.65"/>
    </edge>
    <edge id="8ato7a" from="8a" to="7a" priority="-1">
        <lane id="8ato7a_0" index="0" speed="13.90" length="5000.00" shape="35000.00,6.65 30000.00,6.65"/>
    </edge>
    <edge id="8bto9b" from="8b" to="9b" priority="-1">
        <lane id="8bto9b_0" index="0" speed="13.90" length="5000.00" shape="35000.00,-1.65 40000.00,-1.65"/>
    </edge>
    <edge id="9ato8a" from="9a" to="8a" priority="-1">
        <lane id="9ato8a_0" index="0" speed="13.90" length="5000.00" shape="40000.00,6.65 35000.00,6.65"/>
    </edge>
    <edge id="9bto10b" from="9b" to="10b" priority="-1">
        <lane id="9bto10b_0" index="0" speed="13.90" length="5000.00" shape="40000.00,-1.65 45000.00,-1.65"/>
    </edge>

    <junction id="10a" type="priority" x="45000.00" y="5.00" incLanes="11ato10a_0" intLanes=":10a_0_0" shape="45000.00,8.25 45000.00,5.05 45000.00,8.25">
        <request index="0" response="0" foes="0" cont="0"/>
    </junction>
    <junction id="10b" type="priority" x="45000.00" y="0.00" incLanes="9bto10b_0" intLanes=":10b_0_0" shape="45000.00,-0.05 45000.00,-3.25 45000.00,-0.05">
        <request index="0" response="0" foes="0" cont="0"/>
    </junction>
    <junction id="11a" type="unregulated" x="50000.00" y="5.00" incLanes="" intLanes="" shape="50000.00,5.05 50000.00,8.25"/>
    <junction id="11b" type="unregulated" x="50000.00" y="0.00" incLanes="10bto11b_0" intLanes="" shape="50000.00,-3.25 50000.00,-0.05"/>
    <junction id="1a" type="unregulated" x="0.00" y="5.00" incLanes="2ato1a_0" intLanes="" shape="0.00,8.25 0.00,5.05"/>
    <junction id="1b" type="unregulated" x="0.00" y="0.00" incLanes="" intLanes="" shape="-0.00,-0.05 -0.00,-3.25"/>
    <junction id="2a" type="priority" x="5000.00" y="5.00" incLanes="3ato2a_0" intLanes=":2a_0_0" shape="5000.00,8.25 5000.00,5.05 5000.00,8.25">
        <request index="0" response="0" foes="0" cont="0"/>
    </junction>
    <junction id="2b" type="priority" x="5000.00" y="0.00" incLanes="1bto2b_0" intLanes=":2b_0_0" shape="5000.00,-0.05 5000.00,-3.25 5000.00,-0.05">
        <request index="0" response="0" foes="0" cont="0"/>
    </junction>
    <junction id="3a" type="priority" x="10000.00" y="5.00" incLanes="4ato3a_0" intLanes=":3a_0_0" shape="10000.00,8.25 10000.00,5.05 10000.00,8.25">
        <request index="0" response="0" foes="0" cont="0"/>
    </junction>
    <junction id="3b" type="priority" x="10000.00" y="0.00" incLanes="2bto3b_0" intLanes=":3b_0_0" shape="10000.00,-0.05 10000.00,-3.25 10000.00,-0.05">
        <request index="0" response="0" foes="0" cont="0"/>
    </junction>
    <junction id="4a" type="priority" x="15000.00" y="5.00" incLanes="5ato4a_0" intLanes=":4a_0_0" shape="15000.00,8.25 15000.00,5.05 15000.00,8.25">
        <request index="0" response="0" foes="0" cont="0"/>
    </junction>
    <junction id="4b" type="priority" x="15000.00" y="0.00" incLanes="3bto4b_0" intLanes=":4b_0_0" shape="15000.00,-0.05 15000.00,-3.25 15000.00,-0.05">
        <request index="0" response="0" foes="0" cont="0"/>
    </junction>
    <junction id="5a" type="priority" x="20000.00" y="5.00" incLanes="6ato5a_0" intLanes=":5a_0_0" shape="20000.00,8.25 20000.00,5.05 20000.00,8.25">
        <request index="0" response="0" foes="0" cont="0"/>
    </junction>
    <junction id="5b" type="priority" x="20000.00" y="0.00" incLanes="4bto5b_0" intLanes=":5b_0_0" shape="20000.00,-0.05 20000.00,-3.25 20000.00,-0.05">
        <request index="0" response="0" foes="0" cont="0"/>
    </junction>
    <junction id="6a" type="priority" x="25000.00" y="5.00" incLanes="7ato6a_0" intLanes=":6a_0_0" shape="25000.00,8.25 25000.00,5.05 25000.00,8.25">
        <request index="0" response="0" foes="0" cont="0"/>
    </junction>
    <junction id="6b" type="priority" x="25000.00" y="0.00" incLanes="5bto6b_0" intLanes=":6b_0_0" shape="25000.00,-0.05 25000.00,-3.25 25000.00,-0.05">
        <request index="0" response="0" foes="0" cont="0"/>
    </junction>
    <junction id="7a" type="priority" x="30000.00" y="5.00" incLanes="8ato7a_0" intLanes=":7a_0_0" shape="30000.00,8.25 30000.00,5.05 30000.00,8.25">
        <request index="0" response="0" foes="0" cont="0"/>
    </junction>
    <junction id="7b" type="priority" x="30000.00" y="0.00" incLanes="6bto7b_0" intLanes=":7b_0_0" shape="30000.00,-0.05 30000.00,-3.25 30000.00,-0.05">
        <request index="0" response="0" foes="0" cont="0"/>
    </junction>
    <junction id="8a" type="priority" x="35000.00" y="5.00" incLanes="9ato8a_0" intLanes=":8a_0_0" shape="35000.00,8.25 35000.00,5.05 35000.00,8.25">
        <request index="0" response="0" foes="0" cont="0"/>
    </junction>
    <junction id="8b" type="priority" x="35000.00" y="0.00" incLanes="7bto8b_0" intLanes=":8b_0_0" shape="35000.00,-0.05 35000.00,-3.25 35000.00,-0.05">
        <request index="0" response="0" foes="0" cont="0"/>
    </junction>
    <junction id="9a" type="priority" x="40000.00" y="5.00" incLanes="10ato9a_0" intLanes=":9a_0_0" shape="40000.00,8.25 40000.00,5.05 40000.00,8.25">
        <request index="0" response="0" foes="0" cont="0"/>
    </junction>
    <junction id="9b" type="priority" x="40000.00" y="0.00" incLanes="8bto9b_0" intLanes=":9b_0_0" shape="40000.00,-0.05 40000.00,-3.25 40000.00,-0.05">
        <request index="0" response="0" foes="0" cont="0"/>
    </junction>

    <connection from="10ato9a" to="9ato8a" fromLane="0" toLane="0" via=":9a_0_0" dir="s" state="M"/>
    <connection from="11ato10a" to="10ato9a" fromLane="0" toLane="0" via=":10a_0_0" dir="s" state="M"/>
    <connection from="1bto2b" to="2bto3b" fromLane="0" toLane="0" via=":2b_0_0" dir="s" state="M"/>
    <connection from="2bto3b" to="3bto4b" fromLane="0" toLane="0" via=":3b_0_0" dir="s" state="M"/>
    <connection from="3ato2a" to="2ato1a" fromLane="0" toLane="0" via=":2a_0_0" dir="s" state="M"/>
    <connection from="3bto4b" to="4bto5b" fromLane="0" toLane="0" via=":4b_0_0" dir="s" state="M"/>
    <connection from="4ato3a" to="3ato2a" fromLane="0" toLane="0" via=":3a_0_0" dir="s" state="M"/>
    <connection from="4bto5b" to="5bto6b" fromLane="0" toLane="0" via=":5b_0_0" dir="s" state="M"/>
    <connection from="5ato4a" to="4ato3a" fromLane="0" toLane="0" via=":4a_0_0" dir="s" state="M"/>
    <connection from="5bto6b" to="6bto7b" fromLane="0" toLane="0" via=":6b_0_0" dir="s" state="M"/>
    <connection from="6ato5a" to="5ato4a" fromLane="0" toLane="0" via=":5a_0_0" dir="s" state="M"/>
    <connection from="6bto7b" to="7bto8b" fromLane="0" toLane="0" via=":7b_0_0" dir="s" state="M"/>
    <connection from="7ato6a" to="6ato5a" fromLane="0" toLane="0" via=":6a_0_0" dir="s" state="M"/>
    <connection from="7bto8b" to="8bto9b" fromLane="0" toLane="0" via=":8b_0_0" dir="s" state="M"/>
    <connection from="8ato7a" to="7ato6a" fromLane="0" toLane="0" via=":7a_0_0" dir="s" state="M"/>
    <connection from="8bto9b" to="9bto10b" fromLane="0" toLane="0" via=":9b_0_0" dir="s" state="M"/>
    <connection from="9ato8a" to="8ato7a" fromLane="0" toLane="0" via=":8a_0_0" dir="s" state="M"/>
    <connection from="9bto10b" to="10bto11b" fromLane="0" toLane="0" via=":10b_0_0" dir="s" state="M"/>

    <connection from=":10a_0" to="10ato9a" fromLane="0" toLane="0" dir="s" state="M"/>
    <connection from=":10b_0" to="10bto11b" fromLane="0" toLane="0" dir="s" state="M"/>
    <connection from=":2a_0" to="2ato1a" fromLane="0" toLane="0" dir="s" state="M"/>
    <connection from=":2b_0" to="2bto3b" fromLane="0" toLane="0" dir="s" state="M"/>
    <connection from=":3a_0" to="3ato2a" fromLane="0" toLane="0" dir="s" state="M"/>
    <connection from=":3b_0" to="3bto4b" fromLane="0" toLane="0" dir="s" state="M"/>
    <connection from=":4a_0" to="4ato3a" fromLane="0" toLane="0" dir="s" state="M"/>
    <connection from=":4b_0" to="4bto5b" fromLane="0" toLane="0" dir="s" state="M"/>
    <connection from=":5a_0" to="5ato4a" fromLane="0" toLane="0" dir="s" state="M"/>
    <connection from=":5b_0" to="5bto6b" fromLane="0" toLane="0" dir="s" state="M"/>
    <connection from=":6a_0" to="6ato5a" fromLane="0" toLane="0" dir="s" state="M"/>
    <connection from=":6b_0" to="6bto7b" fromLane="0" toLane="0" dir="s" state="M"/>
    <connection from=":7a_0" to="7ato6a" fromLane="0" toLane="0" dir="s" state="M"/>
    <connection from=":7b_0" to="7bto8b" fromLane="0" toLane="0" dir="s" state="M"/>
    <connection from=":8a_0" to="8ato7a" fromLane="0" toLane="0" dir="s" state="M"/>
    <connection from=":8b_0" to="8bto9b" fromLane="0" toLane="0" dir="s" state="M"/>
    <connection from=":9a_0" to="9ato8a" fromLane="0" toLane="0" dir="s" state="M"/>
    <connection from=":9b_0" to="9bto10b" fromLane="0" toLane="0" dir="s" state="M"/>

</net>
